11533604
  -OEChem-04041605452D

 28 31  0     1  0  0  0  0  0999 V2000
    1.9164    2.4776    0.0000 O   0  0  0  0  0  0  0  0  0  0  0  0
   -2.8579   -1.6500    0.0000 O   0  0  0  0  0  0  0  0  0  0  0  0
    4.3484    0.4125    0.0000 N   0  0  0  0  0  0  0  0  0  0  0  0
    0.7144   -0.4125    0.0000 C   0  0  3  0  0  0  0  0  0  0  0  0
    1.4289    0.0000    0.0000 C   0  0  3  0  0  0  0  0  0  0  0  0
    0.0000    0.0000    0.0000 C   0  0  3  0  0  0  0  0  0  0  0  0
    1.4289    0.8250    0.0000 C   0  0  3  0  0  0  0  0  0  0  0  0
   -0.7145   -0.4125    0.0000 C   0  0  3  0  0  0  0  0  0  0  0  0
    2.2135    1.0799    0.0000 C   0  0  3  0  0  0  0  0  0  0  0  0
    2.2135   -0.2550    0.0000 C   0  0  0  0  0  0  0  0  0  0  0  0
    0.0000    0.8250    0.0000 C   0  0  0  0  0  0  0  0  0  0  0  0
    0.7144    1.2375    0.0000 C   0  0  0  0  0  0  0  0  0  0  0  0
    0.7144   -1.2375    0.0000 C   0  0  0  0  0  0  0  0  0  0  0  0
    2.6984    0.4125    0.0000 C   0  0  3  0  0  0  0  0  0  0  0  0
   -0.7145   -1.2375    0.0000 C   0  0  0  0  0  0  0  0  0  0  0  0
    0.0000   -1.6500    0.0000 C   0  0  0  0  0  0  0  0  0  0  0  0
   -1.4290    0.0000    0.0000 C   0  0  0  0  0  0  0  0  0  0  0  0
    1.4289    1.6500    0.0000 C   0  0  0  0  0  0  0  0  0  0  0  0
    2.4685    1.8645    0.0000 C   0  0  0  0  0  0  0  0  0  0  0  0
   -0.7145    0.4125    0.0000 C   0  0  0  0  0  0  0  0  0  0  0  0
   -1.4290   -1.6500    0.0000 C   0  0  0  0  0  0  0  0  0  0  0  0
    3.5234    0.4125    0.0000 C   0  0  0  0  0  0  0  0  0  0  0  0
   -2.1435   -0.4125    0.0000 C   0  0  0  0  0  0  0  0  0  0  0  0
   -2.1435   -1.2375    0.0000 C   0  0  3  0  0  0  0  0  0  0  0  0
    3.2754    2.0361    0.0000 C   0  0  0  0  0  0  0  0  0  0  0  0
    0.7144    0.4125    0.0000 H   0  0  0  0  0  0  0  0  0  0  0  0
    1.4289   -0.8250    0.0000 H   0  0  0  0  0  0  0  0  0  0  0  0
    0.0000   -0.8250    0.0000 H   0  0  0  0  0  0  0  0  0  0  0  0
  1 19  2  0  0  0  0
 24  2  1  1  0  0  0
  3 22  3  0  0  0  0
  4  5  1  0  0  0  0
  4  6  1  0  0  0  0
  4 13  1  0  0  0  0
  4 26  1  1  0  0  0
  5  7  1  0  0  0  0
  5 10  1  0  0  0  0
  5 27  1  6  0  0  0
  6  8  1  0  0  0  0
  6 11  1  0  0  0  0
  6 28  1  6  0  0  0
  7  9  1  0  0  0  0
  7 12  1  0  0  0  0
  7 18  1  1  0  0  0
  8 15  1  0  0  0  0
  8 17  1  0  0  0  0
  8 20  1  1  0  0  0
  9 14  1  0  0  0  0
  9 19  1  1  0  0  0
 10 14  1  0  0  0  0
 11 12  1  0  0  0  0
 13 16  1  0  0  0  0
 14 22  1  6  0  0  0
 15 16  2  0  0  0  0
 15 21  1  0  0  0  0
 17 23  1  0  0  0  0
 19 25  1  0  0  0  0
 21 24  1  0  0  0  0
 23 24  1  0  0  0  0
M  END
> <PUBCHEM_COMPOUND_ID_TYPE>
0

> <PUBCHEM_TOTAL_CHARGE>
0

> <PUBCHEM_SUBSTANCE_ID>
11533604

> <PUBCHEM_SUBSTANCE_VERSION>
7

> <PUBCHEM_EXT_DATASOURCE_NAME>
ChEBI

> <PUBCHEM_EXT_DATASOURCE_REGID>
CHEBI:35591

> <PUBCHEM_SUBSTANCE_SYNONYM>
3beta-hydroxy-20-oxo-5-pregnene-16alpha-carbonitrile
3beta-hydroxy-20-oxopregn-5-ene-16alpha-carbonitrile
CHEBI:35591
PCN
Pregnenolone-16alpha-carbonitrile
pregnenolone 16alpha-carbonitrile
pregnenolone carbonitrile

> <PUBCHEM_XREF_EXT_ID>
CHEBI:35591

> <PUBCHEM_EXT_DATASOURCE_URL>
http://www.ebi.ac.uk/chebi/

> <PUBCHEM_EXT_SUBSTANCE_URL>
http://www.ebi.ac.uk/chebi/searchId.do?chebiId=CHEBI:35591

> <PUBCHEM_CID_ASSOCIATIONS>
15032  1

> <PUBCHEM_COORDINATE_TYPE>
1
3

> <PUBCHEM_BONDANNOTATIONS>
14  22  6
24  2  5
4  26  5
5  27  6
6  28  6
7  18  5
8  20  5
9  19  5

$$$$
17396627
  -OEChem-04041605452D

 28 31  0     1  0  0  0  0  0999 V2000
   12.7122   -7.8400    0.0000 O   0  0  0  0  0  0  0  0  0  0  0  0
    5.4376  -14.8400    0.0000 O   0  0  0  0  0  0  0  0  0  0  0  0
   17.1169   -8.6601    0.0000 N   0  0  0  0  0  0  0  0  0  0  0  0
   11.4997  -12.7400    0.0000 C   0  0  3  0  0  0  0  0  0  0  0  0
   12.7122  -12.0400    0.0000 C   0  0  3  0  0  0  0  0  0  0  0  0
   10.2873  -12.0400    0.0000 C   0  0  3  0  0  0  0  0  0  0  0  0
   12.7122  -10.6400    0.0000 C   0  0  3  0  0  0  0  0  0  0  0  0
    9.0749  -12.7400    0.0000 C   0  0  3  0  0  0  0  0  0  0  0  0
   13.9246   -9.9400    0.0000 C   0  0  3  0  0  0  0  0  0  0  0  0
   15.1370  -12.0400    0.0000 C   0  0  0  0  0  0  0  0  0  0  0  0
   10.2873  -10.6400    0.0000 C   0  0  0  0  0  0  0  0  0  0  0  0
   11.4997   -9.9400    0.0000 C   0  0  0  0  0  0  0  0  0  0  0  0
   11.4997  -14.1400    0.0000 C   0  0  0  0  0  0  0  0  0  0  0  0
   15.1370  -10.6400    0.0000 C   0  0  3  0  0  0  0  0  0  0  0  0
    9.0749  -14.1400    0.0000 C   0  0  0  0  0  0  0  0  0  0  0  0
   10.2873  -14.8400    0.0000 C   0  0  0  0  0  0  0  0  0  0  0  0
    7.8624  -12.0400    0.0000 C   0  0  0  0  0  0  0  0  0  0  0  0
   12.7122   -9.2400    0.0000 C   0  0  0  0  0  0  0  0  0  0  0  0
   13.9246   -8.5400    0.0000 C   0  0  0  0  0  0  0  0  0  0  0  0
    9.0749  -11.3400    0.0000 C   0  0  0  0  0  0  0  0  0  0  0  0
    7.8624  -14.8400    0.0000 C   0  0  0  0  0  0  0  0  0  0  0  0
   16.1269   -9.6501    0.0000 C   0  0  0  0  0  0  0  0  0  0  0  0
    6.6500  -12.7400    0.0000 C   0  0  0  0  0  0  0  0  0  0  0  0
    6.6500  -14.1400    0.0000 C   0  0  3  0  0  0  0  0  0  0  0  0
   15.1370   -7.8400    0.0000 C   0  0  0  0  0  0  0  0  0  0  0  0
   11.4997  -11.3400    0.0000 H   0  0  0  0  0  0  0  0  0  0  0  0
   12.7122  -13.4400    0.0000 H   0  0  0  0  0  0  0  0  0  0  0  0
   10.2873  -13.4400    0.0000 H   0  0  0  0  0  0  0  0  0  0  0  0
  1 19  2  0  0  0  0
 24  2  1  1  0  0  0
  3 22  3  0  0  0  0
  4  5  1  0  0  0  0
  4  6  1  0  0  0  0
  4 13  1  0  0  0  0
  4 26  1  1  0  0  0
  5  7  1  0  0  0  0
  5 10  1  0  0  0  0
  5 27  1  6  0  0  0
  6  8  1  0  0  0  0
  6 11  1  0  0  0  0
  6 28  1  6  0  0  0
  7  9  1  0  0  0  0
  7 12  1  0  0  0  0
  7 18  1  1  0  0  0
  8 15  1  0  0  0  0
  8 17  1  0  0  0  0
  8 20  1  1  0  0  0
  9 14  1  0  0  0  0
  9 19  1  1  0  0  0
 10 14  1  0  0  0  0
 11 12  1  0  0  0  0
 13 16  1  0  0  0  0
 14 22  1  6  0  0  0
 15 16  2  0  0  0  0
 15 21  1  0  0  0  0
 17 23  1  0  0  0  0
 19 25  1  0  0  0  0
 21 24  1  0  0  0  0
 23 24  1  0  0  0  0
M  END
> <PUBCHEM_COMPOUND_ID_TYPE>
0

> <PUBCHEM_TOTAL_CHARGE>
0

> <PUBCHEM_SUBSTANCE_ID>
17396627

> <PUBCHEM_SUBSTANCE_VERSION>
5

> <PUBCHEM_EXT_DATASOURCE_NAME>
KEGG

> <PUBCHEM_EXT_DATASOURCE_REGID>
C15637

> <PUBCHEM_SUBSTANCE_SYNONYM>
1434-54-4
3beta-Hydroxy-20-oxo-5-pregnene-16alpha-carbonitrile
C15637
PCN
Pregnenolone carbonitrile
Pregnenolone-16alpha-carbonitrile

> <PUBCHEM_GENERIC_REGISTRY_NAME>
1434-54-4

> <PUBCHEM_XREF_EXT_ID>
C15637

> <PUBCHEM_EXT_DATASOURCE_URL>
http://www.genome.jp/kegg/

> <PUBCHEM_EXT_SUBSTANCE_URL>
http://www.genome.jp/dbget-bin/www_bget?cpd:C15637

> <PUBCHEM_CID_ASSOCIATIONS>
15032  1

> <PUBCHEM_COORDINATE_TYPE>
1
3

> <PUBCHEM_BONDANNOTATIONS>
14  22  6
24  2  5
4  26  5
5  27  6
6  28  6
7  18  5
8  20  5
9  19  5

$$$$
50003053
  -OEChem-04041605452D

 10  9  0     1  0  0  0  0  0999 V2000
    1.0367   -1.6010    0.0000 O   0  0  0  0  0  0  0  0  0  0  0  0
    1.9020   -0.1004    0.0000 N   0  0  0  0  0  0  0  0  0  0  0  0
    0.1714   -0.1004    0.0000 C   0  0  3  0  0  0  0  0  0  0  0  0
    1.0367   -0.6020    0.0000 C   0  0  0  0  0  0  0  0  0  0  0  0
    0.1714    0.8988    0.0000 C   0  0  0  0  0  0  0  0  0  0  0  0
   -0.6898   -0.6020    0.0000 C   0  0  0  0  0  0  0  0  0  0  0  0
   -1.5551   -0.1004    0.0000 C   0  0  0  0  0  0  0  0  0  0  0  0
    1.0409    1.4004    0.0000 C   0  0  0  0  0  0  0  0  0  0  0  0
   -0.6939    1.4004    0.0000 C   0  0  0  0  0  0  0  0  0  0  0  0
   -2.4204   -0.6020    0.0000 C   0  0  0  0  0  0  0  0  0  0  0  0
  1  4  2  0  0  0  0
  2  4  1  0  0  0  0
  3  4  1  0  0  0  0
  3  5  1  0  0  0  0
  3  6  1  0  0  0  0
  5  8  1  0  0  0  0
  5  9  1  0  0  0  0
  6  7  1  0  0  0  0
  7 10  2  0  0  0  0
M  END
> <PUBCHEM_COMPOUND_ID_TYPE>
0

> <PUBCHEM_TOTAL_CHARGE>
0

> <PUBCHEM_SUBSTANCE_ID>
50003053

> <PUBCHEM_SUBSTANCE_VERSION>
1

> <PUBCHEM_EXT_DATASOURCE_NAME>
LeadScope

> <PUBCHEM_EXT_DATASOURCE_REGID>
LS-102054

> <PUBCHEM_SUBSTANCE_SYNONYM>
4-Pentenamide, 2-(1-methylethyl)-
AI3-61022
Allylisopropylacetamide
LS-102054

> <PUBCHEM_XREF_EXT_ID>
LS-102054

> <PUBCHEM_EXT_DATASOURCE_URL>
http://www.leadscope.com

> <PUBCHEM_EXT_SUBSTANCE_URL>
http://www.leadscope.com/structure_search_results.php?ss_string=LS-102054

> <PUBCHEM_CID_ASSOCIATIONS>
9297  1

> <PUBCHEM_COORDINATE_TYPE>
1
3

$$$$
50019586
  -OEChem-04041605452D

 28 31  0     1  0  0  0  0  0999 V2000
    1.1693    2.5781    0.0000 O   0  0  0  0  0  0  0  0  0  0  0  0
   -4.1399   -2.2477    0.0000 O   0  0  0  0  0  0  0  0  0  0  0  0
    4.4581    1.6981    0.0000 N   0  0  0  0  0  0  0  0  0  0  0  0
    0.0579   -0.7933    0.0000 C   0  0  3  0  0  0  0  0  0  0  0  0
    0.9337   -0.2850    0.0000 C   0  0  3  0  0  0  0  0  0  0  0  0
   -0.8264   -0.2850    0.0000 C   0  0  3  0  0  0  0  0  0  0  0  0
    0.9337    0.7066    0.0000 C   0  0  3  0  0  0  0  0  0  0  0  0
   -1.7105   -0.7933    0.0000 C   0  0  3  0  0  0  0  0  0  0  0  0
    1.8551    1.2271    0.0000 C   0  0  3  0  0  0  0  0  0  0  0  0
    2.7475   -0.2850    0.0000 C   0  0  0  0  0  0  0  0  0  0  0  0
   -0.8264    0.7066    0.0000 C   0  0  0  0  0  0  0  0  0  0  0  0
    0.0579    1.2271    0.0000 C   0  0  0  0  0  0  0  0  0  0  0  0
    0.0579   -1.8179    0.0000 C   0  0  0  0  0  0  0  0  0  0  0  0
    2.7475    0.7066    0.0000 C   0  0  3  0  0  0  0  0  0  0  0  0
   -1.7105   -1.8179    0.0000 C   0  0  0  0  0  0  0  0  0  0  0  0
   -0.8264   -2.3179    0.0000 C   0  0  0  0  0  0  0  0  0  0  0  0
   -2.6112   -0.2850    0.0000 C   0  0  0  0  0  0  0  0  0  0  0  0
    0.9337    1.4584    0.0000 C   0  0  0  0  0  0  0  0  0  0  0  0
    1.8551    1.9088    0.0000 C   0  0  0  0  0  0  0  0  0  0  0  0
   -1.7105   -0.0165    0.0000 C   0  0  0  0  0  0  0  0  0  0  0  0
   -2.6112   -2.3179    0.0000 C   0  0  0  0  0  0  0  0  0  0  0  0
    3.6069    1.1982    0.0000 C   0  0  0  0  0  0  0  0  0  0  0  0
   -3.5036   -0.7933    0.0000 C   0  0  0  0  0  0  0  0  0  0  0  0
   -3.5036   -1.8261    0.0000 C   0  0  3  0  0  0  0  0  0  0  0  0
    2.5533    2.5121    0.0000 C   0  0  0  0  0  0  0  0  0  0  0  0
    0.0496    0.1983    0.0000 H   0  0  0  0  0  0  0  0  0  0  0  0
    0.9255   -1.2726    0.0000 H   0  0  0  0  0  0  0  0  0  0  0  0
   -0.8347   -1.2726    0.0000 H   0  0  0  0  0  0  0  0  0  0  0  0
  1 19  2  0  0  0  0
 24  2  1  1  0  0  0
  3 22  3  0  0  0  0
  4  5  1  0  0  0  0
  4  6  1  0  0  0  0
  4 13  1  0  0  0  0
  4 26  1  1  0  0  0
  5  7  1  0  0  0  0
  5 10  1  0  0  0  0
  5 27  1  6  0  0  0
  6  8  1  0  0  0  0
  6 11  1  0  0  0  0
  6 28  1  6  0  0  0
  7  9  1  0  0  0  0
  7 12  1  0  0  0  0
  7 18  1  1  0  0  0
  8 15  1  0  0  0  0
  8 17  1  0  0  0  0
  8 20  1  1  0  0  0
  9 14  1  0  0  0  0
  9 19  1  1  0  0  0
 10 14  1  0  0  0  0
 11 12  1  0  0  0  0
 13 16  1  0  0  0  0
 14 22  1  6  0  0  0
 15 16  2  0  0  0  0
 15 21  1  0  0  0  0
 17 23  1  0  0  0  0
 19 25  1  0  0  0  0
 21 24  1  0  0  0  0
 23 24  1  0  0  0  0
M  END
> <PUBCHEM_COMPOUND_ID_TYPE>
0

> <PUBCHEM_TOTAL_CHARGE>
0

> <PUBCHEM_SUBSTANCE_ID>
50019586

> <PUBCHEM_SUBSTANCE_VERSION>
1

> <PUBCHEM_EXT_DATASOURCE_NAME>
LeadScope

> <PUBCHEM_EXT_DATASOURCE_REGID>
LS-118603

> <PUBCHEM_SUBSTANCE_SYNONYM>
3beta-Hydroxy-20-oxo-5-pregnene-16alpha-carbonitrile
CCRIS 9224
LS-118603
Pregn-5-ene-16-carbonitrile, 3-hydroxy-20-oxo-, (3beta,16alpha)-
Pregnenolone 16alpha-carbonitrile
Pregnenolone carbonitrile
Pregnenolone-16alpha-carbonitrile

> <PUBCHEM_XREF_EXT_ID>
LS-118603

> <PUBCHEM_EXT_DATASOURCE_URL>
http://www.leadscope.com

> <PUBCHEM_EXT_SUBSTANCE_URL>
http://www.leadscope.com/structure_search_results.php?ss_string=LS-118603

> <PUBCHEM_CID_ASSOCIATIONS>
15032  1

> <PUBCHEM_COORDINATE_TYPE>
1
3

> <PUBCHEM_BONDANNOTATIONS>
14  22  6
24  2  5
4  26  5
5  27  6
6  28  6
7  18  5
8  20  5
9  19  5

$$$$
52638303
  -OEChem-04041605452D

  0  0  0     0  0  0  0  0  0999 V2000
M  END
> <PUBCHEM_COMPOUND_ID_TYPE>
0

> <PUBCHEM_SUBS_AUTO_STRUCTURE>
Deposited Substance chemical structure was generated via Synonym "CID9297" to be CID 9297

> <PUBCHEM_SUBSTANCE_ID>
52638303

> <PUBCHEM_SUBSTANCE_VERSION>
2

> <PUBCHEM_EXT_DATASOURCE_NAME>
NextBio

> <PUBCHEM_EXT_DATASOURCE_REGID>
9297

> <PUBCHEM_SUBSTANCE_SYNONYM>
Allylisopropylacetamide
CID9297

> <PUBCHEM_XREF_EXT_ID>
9297

> <PUBCHEM_EXT_DATASOURCE_URL>
http://www.nextbio.com/

> <PUBCHEM_EXT_SUBSTANCE_URL>
http://www.nextbio.com/b/search/ov/Allylisopropylacetamide?id=2449405&type=compound&synonym=Allylisopropylacetamide

> <PUBCHEM_CID_ASSOCIATIONS>
9297  1

$$$$
53790231
  -OEChem-04041605452D

  0  0  0     0  0  0  0  0  0999 V2000
M  END
> <PUBCHEM_COMPOUND_ID_TYPE>
0

> <PUBCHEM_SUBS_AUTO_STRUCTURE>
Deposited Substance chemical structure was generated via Synonym(s) "1434-54-4", "PREGNENOLONE CARBONITRILE", "Pregnenolone 16 alpha Carbonitrile" and MeSH to be CID 15032

> <PUBCHEM_SUBSTANCE_ID>
53790231

> <PUBCHEM_SUBSTANCE_VERSION>
74

> <PUBCHEM_EXT_DATASOURCE_NAME>
Comparative Toxicogenomics Database

> <PUBCHEM_EXT_DATASOURCE_REGID>
D011285

> <PUBCHEM_SUBSTANCE_COMMENT>
The Comparative Toxicogenomics Database (CTD) promotes understanding about the effects of environmental chemicals
on human health by curating chemical-gene/protein interactions and chemical- and gene-disease relationships from
the literature.  Click on these links to find specific, curated data for this chemical at CTD:
<a href="http://ctdbase.org/detail.go?view=gene&type=chem&acc=D011285">Genes and Proteins</a>
<a href="http://ctdbase.org/detail.go?view=ixn&type=chem&acc=D011285">Chemical-Gene Interactions</a>
<a href="http://ctdbase.org/detail.go?view=disease&type=chem&acc=D011285">Diseases</a>
<a href="http://ctdbase.org/detail.go?view=pathway&type=chem&acc=D011285">Pathways</a>
Depositor-supplied synonyms are taken from MeSH (Medical Subject Headings).

> <PUBCHEM_SUBSTANCE_SYNONYM>
1434-54-4
16 alpha-Carbonitrile, Pregnenolone
Carbonitrile, Pregnenolone
D011285
PCN
Pregn-5-ene-16-carbonitrile, 3-hydroxy-20-oxo-, (3beta,16alpha)-
Pregnenolone 16 alpha Carbonitrile
Pregnenolone 16 alpha-Carbonitrile
Pregnenolone Carbonitrile
Pregnenolone Carbonitrile, (3 beta)-Isomer
Pregnenolone Carbonitrile, (3 beta,16 beta)-Isomer

> <PUBCHEM_GENERIC_REGISTRY_NAME>
1434-54-4

> <PUBCHEM_XREF_EXT_ID>
D011285

> <PUBCHEM_NCBI_TAXONOMY_ID>
7955
9534
9606
9986
9989
10090
10116

> <PUBCHEM_NCBI_GENE_ID>
1576
2908
5465
6579
6822
8714
8856
11668
11689
11745
11746
11747
11799
11910
11944
11997
12018
12028
12045
12046
12048
12189
12190
12265
12289
12306
12355
12367
12428
12442
12534
12623
12642
12649
12655
12780
12960
12962
13081
13088
13096
13112
13117
13119
13122
13124
13197
13555
13654
13723
13849
13884
14081
14087
14104
14235
14281
14365
14457
14683
14793
14841
14857
14858
14860
14862
14863
14864
14865
14866
14872
15204
15357
15360
15370
15378
15399
15511
15937
16006
16176
16181
16193
16319
16365
16407
16553
16571
16785
16816
17068
17121
17210
17215
17216
17217
17218
17245
17345
17380
17395
17474
18005
18104
18171
18301
18399
18538
18559
18671
18777
18793
18817
19013
19017
19183
19348
19361
19384
19415
19650
20084
20181
20201
20202
20249
20287
20296
20419
20528
20740
20787
20859
20860
20964
20971
20972
21335
21853
21926
22036
22038
23957
23972
24059
24159
24170
24172
24188
24207
24208
24224
24253
24260
24264
24267
24273
24296
24297
24303
24306
24307
24309
24314
24330
24399
24401
24404
24413
24423
24424
24437
24443
24446
24451
24468
24482
24493
24498
24508
24513
24516
24522
24536
24539
24551
24552
24565
24590
24599
24626
24644
24651
24673
24684
24703
24737
24750
24763
24792
24795
24813
24817
24837
24861
24886
24891
24894
24895
24899
24902
24908
24912
24957
24962
25014
25023
25027
25035
25044
25046
25056
25062
25073
25081
25106
25107
25112
25116
25134
25146
25166
25203
25229
25231
25235
25256
25261
25265
25271
25283
25284
25288
25291
25303
25308
25309
25315
25317
25324
25328
25351
25352
25357
25359
25383
25392
25402
25428
25429
25430
25434
25460
25474
25495
25506
25511
25516
25520
25527
25533
25545
25548
25550
25587
25598
25599
25604
25621
25623
25626
25634
25642
25650
25653
25661
25662
25666
25670
25684
25685
25697
25698
25735
25756
26358
26760
26886
26909
27221
27273
27401
27409
27413
28248
28250
28253
29171
29184
29199
29204
29214
29228
29231
29240
29243
29244
29254
29259
29260
29301
29322
29326
29332
29336
29340
29395
29416
29424
29425
29427
29435
29441
29463
29464
29466
29469
29483
29489
29510
29512
29517
29524
29546
29577
29588
29597
29645
29651
29665
29666
29668
29669
29670
29671
29672
29673
29674
29675
29676
29683
29685
29687
29735
29739
30931
50549
50559
50567
50572
50654
50658
50664
50665
50671
52276
52463
54124
54226
54232
54246
54264
54314
54348
54350
54392
54398
54575
54576
54577
54578
54579
54600
54657
54658
54659
55987
55994
56064
56150
56274
56388
56636
56727
56742
56744
57251
57430
58819
58852
58853
58854
58919
58935
58940
58958
58960
58967
58975
59075
59109
60349
60351
60418
60421
60423
60534
60660
60664
60668
60671
63845
63867
63868
64001
64074
64154
64193
64300
64305
64312
64313
64352
64373
64385
64391
64392
64394
64467
64515
64524
64526
64533
64635
64639
64678
64701
65054
65081
65130
65144
65155
65166
65202
65209
66336
66442
66447
66929
66977
67305
67629
67717
67742
67758
67855
67878
67886
68014
68193
68298
68612
68774
69312
70235
70297
70645
71354
71835
71988
72002
72082
72094
72119
72185
72391
72415
72535
73422
73804
74104
74114
74236
74559
75607
75985
76408
78894
78926
78968
79116
79238
79240
79243
79438
80750
80843
80881
81632
81641
81649
81654
81661
81675
81680
81681
81683
81707
81714
81718
81722
81743
81784
81804
81806
81813
81818
81821
81827
81830
83382
83472
83497
83501
83506
83508
83526
83535
83574
83579
83584
83585
83611
83628
83783
83806
83842
83925
84017
84018
84019
84022
84029
84357
84384
84385
84484
84599
84607
85244
85311
85332
89813
89825
93759
94198
98415
100727
101488
102022
104158
105837
106795
107476
107995
108797
108907
110033
110956
113894
114028
114490
114590
114597
114628
114711
114768
114856
116509
116553
116554
116561
116568
116591
116645
116663
116682
116686
116720
117028
117030
117050
117254
117262
117270
117271
117560
140547
140668
140868
140923
140937
140946
155192
170465
170716
170816
170907
170943
171070
171072
171080
171087
171112
171114
171115
171123
171124
171126
171142
171154
171163
171279
171293
171335
171352
171440
171518
171574
171577
191573
191574
191595
192155
192235
192245
192268
192270
192272
192281
195208
207120
208628
208836
211945
212862
213002
213582
214901
217700
218121
223669
226016
226610
229593
229841
230099
230163
230751
230809
230899
230903
231207
233799
234396
234671
234673
236511
237320
237436
243085
243312
243529
244682
245963
246097
246263
246273
246314
246331
246707
246770
252898
252917
252931
252934
258315
258701
258756
260321
266602
266682
268697
268930
269132
270152
272551
282636
282819
286904
286905
286906
286918
286953
286954
286964
287005
287633
287642
287876
287984
288003
288444
288475
289143
289185
289197
289785
290046
290270
291541
291948
292858
293624
293634
293701
293702
293820
293991
294228
294270
294288
295037
295322
296488
296603
297436
298199
298423
299159
299199
299331
299639
299732
300047
300211
300218
300250
300266
300441
300850
301432
302941
303612
303753
303831
304887
305895
306030
306490
306672
307498
307582
307858
308069
308100
308173
308212
308309
309131
309512
309622
309627
310461
311254
311483
311844
312563
312705
313210
313278
313375
314856
315447
315649
316531
316794
319476
328035
337924
338401
338417
353252
360243
361074
361255
361256
361378
361381
361510
361523
361538
361730
361749
361843
361969
362160
362749
362825
362956
363285
365388
365793
366693
367307
367384
367562
367586
380614
380686
381217
384009
394433
394434
394436
396527
404634
407781
450225
494500
497811
497840
498013
498545
565875
572000
574523
623474
641452
667060
680551
685222
100008739
100043194
100502766
100910144
100912108

> <PUBCHEM_PUBMED_ID>
946392
3582421
4418514
7958203
9817075
10219967
10772642
11752103
12370413
12458634
12505310
14570758
14742670
15075359
15456840
15541768
15588932
15596064
15629111
15630458
15683829
15710363
15826607
15833929
15883047
15914091
15917434
15919853
15946133
15986414
16054614
16125621
16155002
16267138
17627975
17998271
18488193
18692084
18723825
19118567
19144771
19162173
19249324
19433268
19562681
19845433
19850644
20359477
20371638
20421340
20655938
20693526
20888898
21115097
21318169
21402137
21742782
21920351
21933665
22024132
22037397
22214767
22429928
22466549
22496397
22659317
22698814
22982774
23588309
23626729
23707768
23726801
23850985
25069801
25542144
25623066
25689681
25949234
26179144

> <PUBCHEM_EXT_DATASOURCE_URL>
http://ctdbase.org/

> <PUBCHEM_EXT_SUBSTANCE_URL>
http://ctdbase.org/detail.go?type=chem&acc=D011285

> <PUBCHEM_CID_ASSOCIATIONS>
15032  1

$$$$
56311480
  -OEChem-04041605452D

 28 31  0     1  0  0  0  0  0999 V2000
    7.6872    0.0000    0.0000 O   0  0  0  0  0  0  0  0  0  0  0  0
    0.0000   -6.6564    0.0000 O   0  0  0  0  0  0  0  0  0  0  0  0
   10.9660   -4.4741    0.0000 N   0  0  0  0  0  0  0  0  0  0  0  0
    5.7681   -4.6496    0.0000 C   0  0  3  0  0  0  0  0  0  0  0  0
    6.9305   -3.9916    0.0000 C   0  0  3  0  0  0  0  0  0  0  0  0
    4.6167   -3.9916    0.0000 C   0  0  3  0  0  0  0  0  0  0  0  0
    6.9305   -2.6318    0.0000 C   0  0  3  0  0  0  0  0  0  0  0  0
    3.4762   -4.6496    0.0000 C   0  0  3  0  0  0  0  0  0  0  0  0
    8.1807   -2.2371    0.0000 C   0  0  3  0  0  0  0  0  0  0  0  0
    8.1807   -4.3864    0.0000 C   0  0  0  0  0  0  0  0  0  0  0  0
    4.6167   -2.6318    0.0000 C   0  0  0  0  0  0  0  0  0  0  0  0
    5.7681   -1.9739    0.0000 C   0  0  0  0  0  0  0  0  0  0  0  0
    5.7681   -5.9765    0.0000 C   0  0  0  0  0  0  0  0  0  0  0  0
    8.9702   -3.3117    0.0000 C   0  0  3  0  0  0  0  0  0  0  0  0
    3.4762   -5.9765    0.0000 C   0  0  0  0  0  0  0  0  0  0  0  0
    4.6167   -6.6454    0.0000 C   0  0  0  0  0  0  0  0  0  0  0  0
    2.3138   -3.9916    0.0000 C   0  0  0  0  0  0  0  0  0  0  0  0
    6.9305   -1.3159    0.0000 C   0  0  0  0  0  0  0  0  0  0  0  0
    8.5864   -0.9431    0.0000 C   0  0  0  0  0  0  0  0  0  0  0  0
    3.4762   -3.3117    0.0000 C   0  0  0  0  0  0  0  0  0  0  0  0
    2.3138   -6.6454    0.0000 C   0  0  0  0  0  0  0  0  0  0  0  0
   10.3081   -3.3117    0.0000 C   0  0  0  0  0  0  0  0  0  0  0  0
    1.1734   -4.6496    0.0000 C   0  0  0  0  0  0  0  0  0  0  0  0
    1.1734   -5.9765    0.0000 C   0  0  3  0  0  0  0  0  0  0  0  0
    9.8694   -0.6909    0.0000 C   0  0  0  0  0  0  0  0  0  0  0  0
    5.7681   -3.3227    0.0000 H   0  0  0  0  0  0  0  0  0  0  0  0
    6.9305   -5.3185    0.0000 H   0  0  0  0  0  0  0  0  0  0  0  0
    4.6167   -5.3185    0.0000 H   0  0  0  0  0  0  0  0  0  0  0  0
  1 19  2  0  0  0  0
 24  2  1  1  0  0  0
  3 22  3  0  0  0  0
  4  5  1  0  0  0  0
  4  6  1  0  0  0  0
  4 13  1  0  0  0  0
  4 26  1  1  0  0  0
  5  7  1  0  0  0  0
  5 10  1  0  0  0  0
  5 27  1  6  0  0  0
  6  8  1  0  0  0  0
  6 11  1  0  0  0  0
  6 28  1  6  0  0  0
  7  9  1  0  0  0  0
  7 12  1  0  0  0  0
  7 18  1  1  0  0  0
  8 15  1  0  0  0  0
  8 17  1  0  0  0  0
  8 20  1  1  0  0  0
  9 14  1  0  0  0  0
  9 19  1  1  0  0  0
 10 14  1  0  0  0  0
 11 12  1  0  0  0  0
 13 16  1  0  0  0  0
 14 22  1  6  0  0  0
 15 16  2  0  0  0  0
 15 21  1  0  0  0  0
 17 23  1  0  0  0  0
 19 25  1  0  0  0  0
 21 24  1  0  0  0  0
 23 24  1  0  0  0  0
M  END
> <PUBCHEM_COMPOUND_ID_TYPE>
0

> <PUBCHEM_TOTAL_CHARGE>
0

> <PUBCHEM_SUBSTANCE_ID>
56311480

> <PUBCHEM_SUBSTANCE_VERSION>
2

> <PUBCHEM_EXT_DATASOURCE_NAME>
EPA DSSTox

> <PUBCHEM_EXT_DATASOURCE_REGID>
44195

> <PUBCHEM_SUBSTANCE_COMMENT>
Substance included in EPA DSSTox ARYEXP: European Bioinformatics Institute (EBI) ArrayExpress Repository for Gene Expression Experiments Structure-Index Locator File <a href="http://www.epa.gov/ncct/dsstox/sdf_aryexp.html"target="_blank">[link to DSSTox SDF Download Page]</a>
Structure Shown: tested chemical
For further information visit the ArrayExpress Repository Microarray Experiment Accession ID E-GEOD-4959  <a href="http://www.ebi.ac.uk/arrayexpress/experiments/E-GEOD-4959"target="_blank">Display ArrayExpress Webpage</a>

> <PUBCHEM_SUBSTANCE_SYNONYM>
(3beta,16alpha)-3-hydroxy-20-oxopregn-5-ene-16-carbonitrile
1434-54-4
Pregnenolone 16alpha-carbonite

> <PUBCHEM_GENERIC_REGISTRY_NAME>
1434-54-4

> <PUBCHEM_XREF_EXT_ID>
44195

> <PUBCHEM_EXT_DATASOURCE_URL>
http://www.epa.gov/ncct/dsstox/sdf_aryexp.html

> <PUBCHEM_EXT_SUBSTANCE_URL>
http://www.ebi.ac.uk/arrayexpress/experiments/E-GEOD-4959

> <PUBCHEM_CID_ASSOCIATIONS>
15032  1

> <PUBCHEM_COORDINATE_TYPE>
1
3

> <PUBCHEM_BONDANNOTATIONS>
14  22  6
24  2  5
4  26  5
5  27  6
6  28  6
7  18  5
8  20  5
9  19  5

$$$$
56313133
  -OEChem-04041605452D

 28 31  0     1  0  0  0  0  0999 V2000
    7.6872    0.0000    0.0000 O   0  0  0  0  0  0  0  0  0  0  0  0
    0.0000   -6.6564    0.0000 O   0  0  0  0  0  0  0  0  0  0  0  0
   10.9660   -4.4741    0.0000 N   0  0  0  0  0  0  0  0  0  0  0  0
    5.7681   -4.6496    0.0000 C   0  0  3  0  0  0  0  0  0  0  0  0
    6.9305   -3.9916    0.0000 C   0  0  3  0  0  0  0  0  0  0  0  0
    4.6167   -3.9916    0.0000 C   0  0  3  0  0  0  0  0  0  0  0  0
    6.9305   -2.6318    0.0000 C   0  0  3  0  0  0  0  0  0  0  0  0
    3.4762   -4.6496    0.0000 C   0  0  3  0  0  0  0  0  0  0  0  0
    8.1807   -2.2371    0.0000 C   0  0  3  0  0  0  0  0  0  0  0  0
    8.1807   -4.3864    0.0000 C   0  0  0  0  0  0  0  0  0  0  0  0
    4.6167   -2.6318    0.0000 C   0  0  0  0  0  0  0  0  0  0  0  0
    5.7681   -1.9739    0.0000 C   0  0  0  0  0  0  0  0  0  0  0  0
    5.7681   -5.9765    0.0000 C   0  0  0  0  0  0  0  0  0  0  0  0
    8.9702   -3.3117    0.0000 C   0  0  3  0  0  0  0  0  0  0  0  0
    3.4762   -5.9765    0.0000 C   0  0  0  0  0  0  0  0  0  0  0  0
    4.6167   -6.6454    0.0000 C   0  0  0  0  0  0  0  0  0  0  0  0
    2.3138   -3.9916    0.0000 C   0  0  0  0  0  0  0  0  0  0  0  0
    6.9305   -1.3159    0.0000 C   0  0  0  0  0  0  0  0  0  0  0  0
    8.5864   -0.9431    0.0000 C   0  0  0  0  0  0  0  0  0  0  0  0
    3.4762   -3.3117    0.0000 C   0  0  0  0  0  0  0  0  0  0  0  0
    2.3138   -6.6454    0.0000 C   0  0  0  0  0  0  0  0  0  0  0  0
   10.3081   -3.3117    0.0000 C   0  0  0  0  0  0  0  0  0  0  0  0
    1.1734   -4.6496    0.0000 C   0  0  0  0  0  0  0  0  0  0  0  0
    1.1734   -5.9765    0.0000 C   0  0  3  0  0  0  0  0  0  0  0  0
    9.8694   -0.6909    0.0000 C   0  0  0  0  0  0  0  0  0  0  0  0
    5.7681   -3.3227    0.0000 H   0  0  0  0  0  0  0  0  0  0  0  0
    6.9305   -5.3185    0.0000 H   0  0  0  0  0  0  0  0  0  0  0  0
    4.6167   -5.3185    0.0000 H   0  0  0  0  0  0  0  0  0  0  0  0
  1 19  2  0  0  0  0
 24  2  1  1  0  0  0
  3 22  3  0  0  0  0
  4  5  1  0  0  0  0
  4  6  1  0  0  0  0
  4 13  1  0  0  0  0
  4 26  1  1  0  0  0
  5  7  1  0  0  0  0
  5 10  1  0  0  0  0
  5 27  1  6  0  0  0
  6  8  1  0  0  0  0
  6 11  1  0  0  0  0
  6 28  1  6  0  0  0
  7  9  1  0  0  0  0
  7 12  1  0  0  0  0
  7 18  1  1  0  0  0
  8 15  1  0  0  0  0
  8 17  1  0  0  0  0
  8 20  1  1  0  0  0
  9 14  1  0  0  0  0
  9 19  1  1  0  0  0
 10 14  1  0  0  0  0
 11 12  1  0  0  0  0
 13 16  1  0  0  0  0
 14 22  1  6  0  0  0
 15 16  2  0  0  0  0
 15 21  1  0  0  0  0
 17 23  1  0  0  0  0
 19 25  1  0  0  0  0
 21 24  1  0  0  0  0
 23 24  1  0  0  0  0
M  END
> <PUBCHEM_COMPOUND_ID_TYPE>
0

> <PUBCHEM_TOTAL_CHARGE>
0

> <PUBCHEM_SUBSTANCE_ID>
56313133

> <PUBCHEM_SUBSTANCE_VERSION>
1

> <PUBCHEM_EXT_DATASOURCE_NAME>
EPA DSSTox

> <PUBCHEM_EXT_DATASOURCE_REGID>
48056

> <PUBCHEM_SUBSTANCE_COMMENT>
Substance included in EPA DSSTox GEOGSE: National Center for Biotechnology Information (NCBI) Gene Expression Omnibus (GEO) Series Experiment Structure-Index Locator File <a href="http://www.epa.gov/ncct/dsstox/sdf_geogse.html"target="_blank">[link to DSSTox SDF Download Page]</a>
Structure Shown: tested chemical
For further information visit GEO Series Microarray Experiment Accession ID GSE4959 <a href="http://www.ncbi.nlm.nih.gov/geo/query/acc.cgi?acc=GSE4959target=_blank">Display GEO Series Webpage</a>

> <PUBCHEM_SUBSTANCE_SYNONYM>
(3beta,16alpha)-3-hydroxy-20-oxopregn-5-ene-16-carbonitrile
1434-54-4
PCN
pregnenolone 16alpha-carbonitrile

> <PUBCHEM_GENERIC_REGISTRY_NAME>
1434-54-4

> <PUBCHEM_XREF_EXT_ID>
48056

> <PUBCHEM_EXT_DATASOURCE_URL>
http://www.epa.gov/ncct/dsstox/sdf_geogse.html

> <PUBCHEM_EXT_SUBSTANCE_URL>
http://www.ncbi.nlm.nih.gov/geo/query/acc.cgi?acc=GSE4959

> <PUBCHEM_CID_ASSOCIATIONS>
15032  1

> <PUBCHEM_COORDINATE_TYPE>
1
3

> <PUBCHEM_BONDANNOTATIONS>
14  22  6
24  2  5
4  26  5
5  27  6
6  28  6
7  18  5
8  20  5
9  19  5

$$$$
57288616
  -OEChem-04041605452D

 28 31  0     1  0  0  0  0  0999 V2000
    7.6872    0.0000    0.0000 O   0  0  0  0  0  0  0  0  0  0  0  0
    0.0000   -6.6564    0.0000 O   0  0  0  0  0  0  0  0  0  0  0  0
   10.9660   -4.4741    0.0000 N   0  0  0  0  0  0  0  0  0  0  0  0
    5.7681   -4.6496    0.0000 C   0  0  3  0  0  0  0  0  0  0  0  0
    6.9305   -3.9916    0.0000 C   0  0  3  0  0  0  0  0  0  0  0  0
    4.6167   -3.9916    0.0000 C   0  0  3  0  0  0  0  0  0  0  0  0
    6.9305   -2.6318    0.0000 C   0  0  3  0  0  0  0  0  0  0  0  0
    3.4762   -4.6496    0.0000 C   0  0  3  0  0  0  0  0  0  0  0  0
    8.1807   -2.2371    0.0000 C   0  0  3  0  0  0  0  0  0  0  0  0
    8.1807   -4.3864    0.0000 C   0  0  0  0  0  0  0  0  0  0  0  0
    4.6167   -2.6318    0.0000 C   0  0  0  0  0  0  0  0  0  0  0  0
    5.7681   -1.9739    0.0000 C   0  0  0  0  0  0  0  0  0  0  0  0
    5.7681   -5.9765    0.0000 C   0  0  0  0  0  0  0  0  0  0  0  0
    8.9702   -3.3117    0.0000 C   0  0  3  0  0  0  0  0  0  0  0  0
    3.4762   -5.9765    0.0000 C   0  0  0  0  0  0  0  0  0  0  0  0
    4.6167   -6.6454    0.0000 C   0  0  0  0  0  0  0  0  0  0  0  0
    2.3138   -3.9916    0.0000 C   0  0  0  0  0  0  0  0  0  0  0  0
    6.9305   -1.3159    0.0000 C   0  0  0  0  0  0  0  0  0  0  0  0
    8.5864   -0.9431    0.0000 C   0  0  0  0  0  0  0  0  0  0  0  0
    3.4762   -3.3117    0.0000 C   0  0  0  0  0  0  0  0  0  0  0  0
    2.3138   -6.6454    0.0000 C   0  0  0  0  0  0  0  0  0  0  0  0
   10.3081   -3.3117    0.0000 C   0  0  0  0  0  0  0  0  0  0  0  0
    1.1734   -4.6496    0.0000 C   0  0  0  0  0  0  0  0  0  0  0  0
    1.1734   -5.9765    0.0000 C   0  0  3  0  0  0  0  0  0  0  0  0
    9.8694   -0.6909    0.0000 C   0  0  0  0  0  0  0  0  0  0  0  0
    5.7681   -3.3227    0.0000 H   0  0  0  0  0  0  0  0  0  0  0  0
    6.9305   -5.3185    0.0000 H   0  0  0  0  0  0  0  0  0  0  0  0
    4.6167   -5.3185    0.0000 H   0  0  0  0  0  0  0  0  0  0  0  0
  1 19  2  0  0  0  0
 24  2  1  1  0  0  0
  3 22  3  0  0  0  0
  4  5  1  0  0  0  0
  4  6  1  0  0  0  0
  4 13  1  0  0  0  0
  4 26  1  1  0  0  0
  5  7  1  0  0  0  0
  5 10  1  0  0  0  0
  5 27  1  6  0  0  0
  6  8  1  0  0  0  0
  6 11  1  0  0  0  0
  6 28  1  6  0  0  0
  7  9  1  0  0  0  0
  7 12  1  0  0  0  0
  7 18  1  1  0  0  0
  8 15  1  0  0  0  0
  8 17  1  0  0  0  0
  8 20  1  1  0  0  0
  9 14  1  0  0  0  0
  9 19  1  1  0  0  0
 10 14  1  0  0  0  0
 11 12  1  0  0  0  0
 13 16  1  0  0  0  0
 14 22  1  6  0  0  0
 15 16  2  0  0  0  0
 15 21  1  0  0  0  0
 17 23  1  0  0  0  0
 19 25  1  0  0  0  0
 21 24  1  0  0  0  0
 23 24  1  0  0  0  0
M  END
> <PUBCHEM_COMPOUND_ID_TYPE>
0

> <PUBCHEM_TOTAL_CHARGE>
0

> <PUBCHEM_SUBSTANCE_ID>
57288616

> <PUBCHEM_SUBSTANCE_VERSION>
1

> <PUBCHEM_EXT_DATASOURCE_NAME>
EPA DSSTox

> <PUBCHEM_EXT_DATASOURCE_REGID>
57678

> <PUBCHEM_SUBSTANCE_COMMENT>
Substance included in EPA DSSTox GEOGSE: National Center for Biotechnology Information (NCBI) Gene Expression Omnibus (GEO) Series Experiment Structure-Index Locator File <a href="http://www.epa.gov/ncct/dsstox/sdf_geogse.html"target="_blank">[link to DSSTox SDF Download Page]</a>
Structure Shown: tested chemical
For further information visit GEO Series Microarray Experiment Accession ID GSE12537 <a href="http://www.ncbi.nlm.nih.gov/geo/query/acc.cgi?acc=GSE12537"target=_blank>Display GEO Series Webpage</a>

> <PUBCHEM_SUBSTANCE_SYNONYM>
(3beta,16alpha)-3-hydroxy-20-oxopregn-5-ene-16-carbonitrile
1434-54-4
PCN
Pregnenolone carbonitrile
pregnenolone-16alpha-carbonitrile

> <PUBCHEM_GENERIC_REGISTRY_NAME>
1434-54-4

> <PUBCHEM_XREF_EXT_ID>
57678

> <PUBCHEM_EXT_DATASOURCE_URL>
http://www.epa.gov/ncct/dsstox/sdf_geogse.html

> <PUBCHEM_EXT_SUBSTANCE_URL>
http://www.ncbi.nlm.nih.gov/geo/query/acc.cgi?acc=GSE12537

> <PUBCHEM_CID_ASSOCIATIONS>
15032  1

> <PUBCHEM_COORDINATE_TYPE>
1
3

> <PUBCHEM_BONDANNOTATIONS>
14  22  6
24  2  5
4  26  5
5  27  6
6  28  6
7  18  5
8  20  5
9  19  5

$$$$
77539396
  -OEChem-04041605452D

  0  0  0     0  0  0  0  0  0999 V2000
M  END
> <PUBCHEM_COMPOUND_ID_TYPE>
0

> <PUBCHEM_SUBS_AUTO_STRUCTURE>
Deposited Substance chemical structure was generated via Synonym "CID15032" to be CID 15032

> <PUBCHEM_SUBSTANCE_ID>
77539396

> <PUBCHEM_SUBSTANCE_VERSION>
1

> <PUBCHEM_EXT_DATASOURCE_NAME>
NextBio

> <PUBCHEM_EXT_DATASOURCE_REGID>
15032

> <PUBCHEM_SUBSTANCE_SYNONYM>
CID15032
Pregnenolone Carbonitrile

> <PUBCHEM_XREF_EXT_ID>
15032

> <PUBCHEM_EXT_DATASOURCE_URL>
http://www.nextbio.com/

> <PUBCHEM_EXT_SUBSTANCE_URL>
http://www.nextbio.com/b/search/ov/Pregnenolone+Carbonitrile?id=1904580&type=compound&synonym=Pregnenolone+Carbonitrile

> <PUBCHEM_CID_ASSOCIATIONS>
15032  1

$$$$
77539397
  -OEChem-04041605452D

  0  0  0     0  0  0  0  0  0999 V2000
M  END
> <PUBCHEM_COMPOUND_ID_TYPE>
0

> <PUBCHEM_SUBS_AUTO_STRUCTURE>
Deposited Substance chemical structure was generated via Synonym "CID6610343" to be CID 6610343

> <PUBCHEM_SUBSTANCE_ID>
77539397

> <PUBCHEM_SUBSTANCE_VERSION>
1

> <PUBCHEM_EXT_DATASOURCE_NAME>
NextBio

> <PUBCHEM_EXT_DATASOURCE_REGID>
6610343

> <PUBCHEM_SUBSTANCE_SYNONYM>
CID6610343
Pregnenolone Carbonitrile

> <PUBCHEM_XREF_EXT_ID>
6610343

> <PUBCHEM_EXT_DATASOURCE_URL>
http://www.nextbio.com/

> <PUBCHEM_EXT_SUBSTANCE_URL>
http://www.nextbio.com/b/search/ov/Pregnenolone+Carbonitrile?id=1904580&type=compound&synonym=Pregnenolone+Carbonitrile

> <PUBCHEM_CID_ASSOCIATIONS>
6610343  1

$$$$
77539398
  -OEChem-04041605452D

  0  0  0     0  0  0  0  0  0999 V2000
M  END
> <PUBCHEM_COMPOUND_ID_TYPE>
0

> <PUBCHEM_SUBS_AUTO_STRUCTURE>
Deposited Substance chemical structure was generated via Synonym "CID5225515" to be CID 5225515

> <PUBCHEM_SUBSTANCE_ID>
77539398

> <PUBCHEM_SUBSTANCE_VERSION>
1

> <PUBCHEM_EXT_DATASOURCE_NAME>
NextBio

> <PUBCHEM_EXT_DATASOURCE_REGID>
5225515

> <PUBCHEM_SUBSTANCE_SYNONYM>
CID5225515
Pregnenolone Carbonitrile

> <PUBCHEM_XREF_EXT_ID>
5225515

> <PUBCHEM_EXT_DATASOURCE_URL>
http://www.nextbio.com/

> <PUBCHEM_EXT_SUBSTANCE_URL>
http://www.nextbio.com/b/search/ov/Pregnenolone+Carbonitrile?id=1904580&type=compound&synonym=Pregnenolone+Carbonitrile

> <PUBCHEM_CID_ASSOCIATIONS>
5225515  1

$$$$
77539399
  -OEChem-04041605452D

  0  0  0     0  0  0  0  0  0999 V2000
M  END
> <PUBCHEM_COMPOUND_ID_TYPE>
0

> <PUBCHEM_SUBS_AUTO_STRUCTURE>
Deposited Substance chemical structure was generated via Synonym "CID9840954" to be CID 9840954

> <PUBCHEM_SUBSTANCE_ID>
77539399

> <PUBCHEM_SUBSTANCE_VERSION>
1

> <PUBCHEM_EXT_DATASOURCE_NAME>
NextBio

> <PUBCHEM_EXT_DATASOURCE_REGID>
9840954

> <PUBCHEM_SUBSTANCE_SYNONYM>
CID9840954
Pregnenolone Carbonitrile

> <PUBCHEM_XREF_EXT_ID>
9840954

> <PUBCHEM_EXT_DATASOURCE_URL>
http://www.nextbio.com/

> <PUBCHEM_EXT_SUBSTANCE_URL>
http://www.nextbio.com/b/search/ov/Pregnenolone+Carbonitrile?id=1904580&type=compound&synonym=Pregnenolone+Carbonitrile

> <PUBCHEM_CID_ASSOCIATIONS>
9840954  1

$$$$
85088895
  -OEChem-04041605452D

 25 28  0     1  0  0  0  0  0999 V2000
    0.0000    0.0000    0.0000 O   0  0  0  0  0  0  0  0  0  0  0  0
    0.0000    0.0000    0.0000 O   0  0  0  0  0  0  0  0  0  0  0  0
    0.0000    0.0000    0.0000 N   0  0  0  0  0  0  0  0  0  0  0  0
    0.0000    0.0000    0.0000 C   0  0  3  0  0  0  0  0  0  0  0  0
    0.0000    0.0000    0.0000 C   0  0  3  0  0  0  0  0  0  0  0  0
    0.0000    0.0000    0.0000 C   0  0  3  0  0  0  0  0  0  0  0  0
    0.0000    0.0000    0.0000 C   0  0  3  0  0  0  0  0  0  0  0  0
    0.0000    0.0000    0.0000 C   0  0  3  0  0  0  0  0  0  0  0  0
    0.0000    0.0000    0.0000 C   0  0  3  0  0  0  0  0  0  0  0  0
    0.0000    0.0000    0.0000 C   0  0  3  0  0  0  0  0  0  0  0  0
    0.0000    0.0000    0.0000 C   0  0  0  0  0  0  0  0  0  0  0  0
    0.0000    0.0000    0.0000 C   0  0  0  0  0  0  0  0  0  0  0  0
    0.0000    0.0000    0.0000 C   0  0  0  0  0  0  0  0  0  0  0  0
    0.0000    0.0000    0.0000 C   0  0  0  0  0  0  0  0  0  0  0  0
    0.0000    0.0000    0.0000 C   0  0  0  0  0  0  0  0  0  0  0  0
    0.0000    0.0000    0.0000 C   0  0  0  0  0  0  0  0  0  0  0  0
    0.0000    0.0000    0.0000 C   0  0  0  0  0  0  0  0  0  0  0  0
    0.0000    0.0000    0.0000 C   0  0  0  0  0  0  0  0  0  0  0  0
    0.0000    0.0000    0.0000 C   0  0  0  0  0  0  0  0  0  0  0  0
    0.0000    0.0000    0.0000 C   0  0  0  0  0  0  0  0  0  0  0  0
    0.0000    0.0000    0.0000 C   0  0  0  0  0  0  0  0  0  0  0  0
    0.0000    0.0000    0.0000 C   0  0  0  0  0  0  0  0  0  0  0  0
    0.0000    0.0000    0.0000 C   0  0  3  0  0  0  0  0  0  0  0  0
    0.0000    0.0000    0.0000 C   0  0  0  0  0  0  0  0  0  0  0  0
    0.0000    0.0000    0.0000 C   0  0  0  0  0  0  0  0  0  0  0  0
  1 16  2  0  0  0  0
  2 23  1  0  0  0  0
  3 22  3  0  0  0  0
  4  5  1  0  0  0  0
  4  9  1  0  0  0  0
  4 11  1  0  0  0  0
  4 19  1  0  0  0  0
  5  6  1  0  0  0  0
  5 12  1  0  0  0  0
  6  7  1  0  0  0  0
  6 15  1  0  0  0  0
  7  8  1  0  0  0  0
  7 14  1  0  0  0  0
  8 13  1  0  0  0  0
  8 17  1  0  0  0  0
  8 21  1  0  0  0  0
  9 10  1  0  0  0  0
  9 16  1  0  0  0  0
 10 12  1  0  0  0  0
 10 22  1  0  0  0  0
 11 14  1  0  0  0  0
 13 18  2  0  0  0  0
 13 20  1  0  0  0  0
 15 18  1  0  0  0  0
 16 25  1  0  0  0  0
 17 24  1  0  0  0  0
 20 23  1  0  0  0  0
 23 24  1  0  0  0  0
M  END
> <PUBCHEM_COMPOUND_ID_TYPE>
0

> <PUBCHEM_TOTAL_CHARGE>
0

> <PUBCHEM_SUBSTANCE_ID>
85088895

> <PUBCHEM_SUBSTANCE_VERSION>
1

> <PUBCHEM_EXT_DATASOURCE_NAME>
MP Biomedicals

> <PUBCHEM_EXT_DATASOURCE_REGID>
156362

> <PUBCHEM_SUBSTANCE_SYNONYM>
1434-54-4
5-PREGNEN-3beta-OL-20-ONE-16alpha-CARBONITRILE
Pregnenolone-16alpha-carbonitrile

> <PUBCHEM_GENERIC_REGISTRY_NAME>
1434-54-4

> <PUBCHEM_XREF_EXT_ID>
156362

> <PUBCHEM_EXT_DATASOURCE_URL>
http://www.mpbio.com

> <PUBCHEM_EXT_SUBSTANCE_URL>
http://www.mpbio.com/product_info.php?open=&cPath=&selecttab=&family_key=02156362

> <PUBCHEM_CID_ASSOCIATIONS>
5225515  1

$$$$
85149224
  -OEChem-04041605453D

 43 48  0     0  0  0  0  0  0999 V2000
   22.9860   -0.2940   28.0300 Fe  0  0  0  0  0  0  0  0  0  0  0  0
   21.1940   -4.8280   35.1220 O   0  0  0  0  0  0  0  0  0  0  0  0
   21.2390   -2.6640   35.7150 O   0  0  0  0  0  0  0  0  0  0  0  0
   27.7730   -0.7110   34.9640 O   0  0  0  0  0  0  0  0  0  0  0  0
   26.7770   -2.6640   34.7730 O   0  0  0  0  0  0  0  0  0  0  0  0
   21.7850   -0.7900   29.7150 N   0  0  0  0  0  0  0  0  0  0  0  0
   24.1360   -0.2040   26.2600 N   0  0  0  0  0  0  0  0  0  0  0  0
   24.5450   -1.1850   28.9970 N   0  0  0  0  0  0  0  0  0  0  0  0
   21.2750    0.1360   27.0690 N   0  0  0  0  0  0  0  0  0  0  0  0
   22.1700   -1.1990   30.9200 C   0  0  0  0  0  0  0  0  0  0  0  0
   20.4160   -0.5830   29.7400 C   0  0  0  0  0  0  0  0  0  0  0  0
   25.4570   -0.5690   26.1840 C   0  0  0  0  0  0  0  0  0  0  0  0
   23.7730    0.4000   25.1270 C   0  0  0  0  0  0  0  0  0  0  0  0
   20.9890   -1.2200   31.7920 C   0  0  0  0  0  0  0  0  0  0  0  0
   19.9160   -0.9470   31.0550 C   0  0  0  0  0  0  0  0  0  0  0  0
   25.9290   -0.1970   24.8920 C   0  0  0  0  0  0  0  0  0  0  0  0
   24.9340    0.3720   24.2320 C   0  0  0  0  0  0  0  0  0  0  0  0
   24.5350   -1.5210   30.3570 C   0  0  0  0  0  0  0  0  0  0  0  0
   25.8040   -1.4400   28.4540 C   0  0  0  0  0  0  0  0  0  0  0  0
   23.4810   -1.4170   31.2150 C   0  0  0  0  0  0  0  0  0  0  0  0
   21.4060    0.7680   25.8130 C   0  0  0  0  0  0  0  0  0  0  0  0
   20.0280    0.3950   27.5310 C   0  0  0  0  0  0  0  0  0  0  0  0
   26.1740   -1.2150   27.1380 C   0  0  0  0  0  0  0  0  0  0  0  0
   19.6150   -0.1370   28.7350 C   0  0  0  0  0  0  0  0  0  0  0  0
   22.4820    0.8820   24.9520 C   0  0  0  0  0  0  0  0  0  0  0  0
   25.8630   -2.0020   30.7530 C   0  0  0  0  0  0  0  0  0  0  0  0
   26.6910   -1.9730   29.4890 C   0  0  0  0  0  0  0  0  0  0  0  0
   20.1600    1.4390   25.5310 C   0  0  0  0  0  0  0  0  0  0  0  0
   19.2980    1.2350   26.5470 C   0  0  0  0  0  0  0  0  0  0  0  0
   21.0310   -1.6790   33.2630 C   0  0  0  0  0  0  0  0  0  0  0  0
   27.3720   -0.4490   24.3890 C   0  0  0  0  0  0  0  0  0  0  0  0
   18.3790   -0.8640   31.4300 C   0  0  0  0  0  0  0  0  0  0  0  0
   25.1040    0.9950   22.8060 C   0  0  0  0  0  0  0  0  0  0  0  0
   26.3260   -2.4960   32.1480 C   0  0  0  0  0  0  0  0  0  0  0  0
   19.9960    2.2330   24.2120 C   0  0  0  0  0  0  0  0  0  0  0  0
   28.1770   -2.4340   29.4120 C   0  0  0  0  0  0  0  0  0  0  0  0
   17.8530    1.8550   26.4990 C   0  0  0  0  0  0  0  0  0  0  0  0
   21.0660   -3.1980   33.3530 C   0  0  0  0  0  0  0  0  0  0  0  0
   28.1630    0.3880   25.0030 C   0  0  0  0  0  0  0  0  0  0  0  0
   26.7330   -1.1820   32.8630 C   0  0  0  0  0  0  0  0  0  0  0  0
   21.1350   -3.5880   34.8450 C   0  0  0  0  0  0  0  0  0  0  0  0
   18.8740    2.8250   23.8190 C   0  0  0  0  0  0  0  0  0  0  0  0
   27.1130   -1.5240   34.3100 C   0  0  0  0  0  0  0  0  0  0  0  0
  1  6  1  0  0  0  0
  1  7  1  0  0  0  0
  2 41  2  0  0  0  0
  3 41  1  0  0  0  0
  4 43  2  0  0  0  0
  5 43  1  0  0  0  0
  6 10  1  0  0  0  0
  6 11  1  0  0  0  0
  7 12  1  0  0  0  0
  7 13  1  0  0  0  0
  8 18  2  0  0  0  0
  8 19  1  0  0  0  0
  9 21  1  0  0  0  0
  9 22  2  0  0  0  0
 10 14  1  0  0  0  0
 10 20  2  0  0  0  0
 11 15  1  0  0  0  0
 11 24  2  0  0  0  0
 12 16  2  0  0  0  0
 12 23  1  0  0  0  0
 13 17  2  0  0  0  0
 13 25  1  0  0  0  0
 14 15  2  0  0  0  0
 14 30  1  0  0  0  0
 15 32  1  0  0  0  0
 16 17  1  0  0  0  0
 16 31  1  0  0  0  0
 17 33  1  0  0  0  0
 18 20  1  0  0  0  0
 18 26  1  0  0  0  0
 19 23  2  0  0  0  0
 19 27  1  0  0  0  0
 21 25  2  0  0  0  0
 21 28  1  0  0  0  0
 22 24  1  0  0  0  0
 22 29  1  0  0  0  0
 26 27  2  0  0  0  0
 26 34  1  0  0  0  0
 27 36  1  0  0  0  0
 28 29  2  0  0  0  0
 28 35  1  0  0  0  0
 29 37  1  0  0  0  0
 30 38  1  0  0  0  0
 31 39  1  0  0  0  0
 34 40  1  0  0  0  0
 35 42  2  0  0  0  0
 38 41  1  0  0  0  0
 40 43  1  0  0  0  0
M  END
> <PUBCHEM_COMPOUND_ID_TYPE>
0

> <PUBCHEM_MMDB_MOLECULE_NAME>
HEM

> <PUBCHEM_TOTAL_CHARGE>
0

> <PUBCHEM_SUBSTANCE_ID>
85149224

> <PUBCHEM_SUBSTANCE_VERSION>
2

> <PUBCHEM_EXT_DATASOURCE_NAME>
MMDB

> <PUBCHEM_EXT_DATASOURCE_REGID>
75998.3

> <PUBCHEM_SUBSTANCE_COMMENT>
PDB Accession Code 2WIV
Cytochrome-P450 Xpla Heme Domain P21
Electron Transport
Cytochrome-P450 Xpla Heme Domain P21 Cyt-P450, Heme, Rdx, Bioremediation, Electron Transport Mol_id: 1; Molecule: Cytochrome P450-Like Protein Xpla; Chain: A, B; Fragment: Residues 159-552; Synonym: Xpla-Heme; Engineered: Yes

> <PUBCHEM_SUBSTANCE_SYNONYM>
HEM

> <PUBCHEM_XREF_EXT_ID>
75998.3

> <PUBCHEM_NCBI_MMDB_ID>
75998

> <PUBCHEM_EXT_DATASOURCE_URL>
http://www.ncbi.nlm.nih.gov/Structure/MMDB/mmdb.shtml

> <PUBCHEM_EXT_SUBSTANCE_URL>
http://www.ncbi.nlm.nih.gov/Structure/mmdb/mmdbsrv.cgi?uid=75998

> <PUBCHEM_CID_ASSOCIATIONS>
444207  1
23925  2
444208  2

> <PUBCHEM_CONFORMER_ID>
0513462800020001

> <PUBCHEM_COORDINATE_TYPE>
2
3
4

$$$$
93167036
  -OEChem-04041605453D

 56 59  0     1  0  0  0  0  0999 V2000
   15.4894   20.3112   -0.4188 O   0  0  0  0  0  0  0  0  0  0  0  0
   13.3678   10.0435   -0.5134 O   0  0  0  0  0  0  0  0  0  0  0  0
   10.6948   22.2893    0.8133 N   0  0  0  0  0  0  0  0  0  0  0  0
   13.4201   18.5399   -0.1586 C   0  0  1  0  0  0  0  0  0  0  0  0
   12.0989   17.9206    0.2828 C   0  0  2  0  0  0  0  0  0  0  0  0
   12.0414   16.4262   -0.1891 C   0  0  1  0  0  0  0  0  0  0  0  0
   13.2723   15.6888    0.4006 C   0  0  1  0  0  0  0  0  0  0  0  0
   13.3452   14.2751   -0.1514 C   0  0  2  0  0  0  0  0  0  0  0  0
   13.2419   19.9751    0.2483 C   0  0  2  0  0  0  0  0  0  0  0  0
   14.5796   17.8329    0.5443 C   0  0  0  0  0  0  0  0  0  0  0  0
   14.6016   16.4024    0.0346 C   0  0  0  0  0  0  0  0  0  0  0  0
   11.0521   18.9151   -0.3206 C   0  0  0  0  0  0  0  0  0  0  0  0
   11.8696   20.3111   -0.3936 C   0  0  1  0  0  0  0  0  0  0  0  0
   10.7977   15.7090    0.3536 C   0  0  0  0  0  0  0  0  0  0  0  0
   12.0383   13.5450   -0.0735 C   0  0  0  0  0  0  0  0  0  0  0  0
   13.5839   18.4463   -1.6763 C   0  0  0  0  0  0  0  0  0  0  0  0
   14.4408   13.4926    0.5790 C   0  0  0  0  0  0  0  0  0  0  0  0
   10.8839   14.1981    0.1317 C   0  0  0  0  0  0  0  0  0  0  0  0
   13.7355   14.3214   -1.6728 C   0  0  0  0  0  0  0  0  0  0  0  0
   12.0318   12.0798   -0.4439 C   0  0  0  0  0  0  0  0  0  0  0  0
   14.3935   20.8388   -0.1762 C   0  0  0  0  0  0  0  0  0  0  0  0
   14.5484   12.0961   -0.0501 C   0  0  0  0  0  0  0  0  0  0  0  0
   13.2416   11.3010    0.1523 C   0  0  2  0  0  0  0  0  0  0  0  0
   11.1840   21.3929    0.2878 C   0  0  0  0  0  0  0  0  0  0  0  0
   14.2887   22.3182   -0.1950 C   0  0  0  0  0  0  0  0  0  0  0  0
   12.0359   17.9697    1.3797 H   0  0  0  0  0  0  0  0  0  0  0  0
   12.0619   16.3846   -1.2974 H   0  0  0  0  0  0  0  0  0  0  0  0
   13.1611   15.6677    1.4733 H   0  0  0  0  0  0  0  0  0  0  0  0
   13.1302   20.0196    1.3456 H   0  0  0  0  0  0  0  0  0  0  0  0
   15.4426   18.2886    0.3261 H   0  0  0  0  0  0  0  0  0  0  0  0
   14.4382   17.8422    1.5342 H   0  0  0  0  0  0  0  0  0  0  0  0
   14.7133   16.4067   -0.9591 H   0  0  0  0  0  0  0  0  0  0  0  0
   15.3660   15.9131    0.4543 H   0  0  0  0  0  0  0  0  0  0  0  0
   10.7616   18.6212   -1.2312 H   0  0  0  0  0  0  0  0  0  0  0  0
   10.2525   18.9986    0.2741 H   0  0  0  0  0  0  0  0  0  0  0  0
   12.0338   20.5341   -1.4698 H   0  0  0  0  0  0  0  0  0  0  0  0
   10.7193   15.8905    1.3339 H   0  0  0  0  0  0  0  0  0  0  0  0
    9.9882   16.0605   -0.1168 H   0  0  0  0  0  0  0  0  0  0  0  0
   14.4551   18.8577   -1.9441 H   0  0  0  0  0  0  0  0  0  0  0  0
   12.8341   18.9338   -2.1238 H   0  0  0  0  0  0  0  0  0  0  0  0
   13.5697   17.4859   -1.9547 H   0  0  0  0  0  0  0  0  0  0  0  0
   15.3142   13.9710    0.4874 H   0  0  0  0  0  0  0  0  0  0  0  0
   14.2061   13.4089    1.5474 H   0  0  0  0  0  0  0  0  0  0  0  0
   10.0353   13.6690    0.1396 H   0  0  0  0  0  0  0  0  0  0  0  0
   13.7828   13.3901   -2.0338 H   0  0  0  0  0  0  0  0  0  0  0  0
   14.6264   14.7639   -1.7756 H   0  0  0  0  0  0  0  0  0  0  0  0
   13.0459   14.8398   -2.1786 H   0  0  0  0  0  0  0  0  0  0  0  0
   11.1873   11.6677   -0.1018 H   0  0  0  0  0  0  0  0  0  0  0  0
   12.0613   12.0023   -1.4404 H   0  0  0  0  0  0  0  0  0  0  0  0
   14.7261   12.1910   -1.0296 H   0  0  0  0  0  0  0  0  0  0  0  0
   15.3032   11.6006    0.3797 H   0  0  0  0  0  0  0  0  0  0  0  0
   13.0788   11.1437    1.2245 H   0  0  0  0  0  0  0  0  0  0  0  0
   15.1548   22.7104   -0.5047 H   0  0  0  0  0  0  0  0  0  0  0  0
   14.0835   22.6501    0.7258 H   0  0  0  0  0  0  0  0  0  0  0  0
   13.5569   22.5931   -0.8187 H   0  0  0  0  0  0  0  0  0  0  0  0
   14.1540    9.5561   -0.1476 H   0  0  0  0  0  0  0  0  0  0  0  0
  1 21  2  0  0  0  0
  2 23  1  0  0  0  0
  2 56  1  0  0  0  0
  3 24  3  0  0  0  0
  4  5  1  0  0  0  0
  4  9  1  0  0  0  0
  4 10  1  0  0  0  0
  4 16  1  0  0  0  0
  5  6  1  0  0  0  0
  5 12  1  0  0  0  0
  5 26  1  0  0  0  0
  6  7  1  0  0  0  0
  6 14  1  0  0  0  0
  6 27  1  0  0  0  0
  7  8  1  0  0  0  0
  7 11  1  0  0  0  0
  7 28  1  0  0  0  0
  8 15  1  0  0  0  0
  8 17  1  0  0  0  0
  8 19  1  0  0  0  0
  9 13  1  0  0  0  0
  9 21  1  0  0  0  0
  9 29  1  0  0  0  0
 10 11  1  0  0  0  0
 10 30  1  0  0  0  0
 10 31  1  0  0  0  0
 11 32  1  0  0  0  0
 11 33  1  0  0  0  0
 12 13  1  0  0  0  0
 12 34  1  0  0  0  0
 12 35  1  0  0  0  0
 13 24  1  0  0  0  0
 13 36  1  0  0  0  0
 14 18  1  0  0  0  0
 14 37  1  0  0  0  0
 14 38  1  0  0  0  0
 15 18  2  0  0  0  0
 15 20  1  0  0  0  0
 16 39  1  0  0  0  0
 16 40  1  0  0  0  0
 16 41  1  0  0  0  0
 17 22  1  0  0  0  0
 17 42  1  0  0  0  0
 17 43  1  0  0  0  0
 18 44  1  0  0  0  0
 19 45  1  0  0  0  0
 19 46  1  0  0  0  0
 19 47  1  0  0  0  0
 20 23  1  0  0  0  0
 20 48  1  0  0  0  0
 20 49  1  0  0  0  0
 21 25  1  0  0  0  0
 22 23  1  0  0  0  0
 22 50  1  0  0  0  0
 22 51  1  0  0  0  0
 23 52  1  0  0  0  0
 25 53  1  0  0  0  0
 25 54  1  0  0  0  0
 25 55  1  0  0  0  0
M  END
> <PUBCHEM_COMPOUND_ID_TYPE>
0

> <PUBCHEM_TOTAL_CHARGE>
0

> <PUBCHEM_SUBSTANCE_ID>
93167036

> <PUBCHEM_SUBSTANCE_VERSION>
1

> <PUBCHEM_EXT_DATASOURCE_NAME>
BIDD

> <PUBCHEM_EXT_DATASOURCE_REGID>
BIDD:PXR0018

> <PUBCHEM_SUBSTANCE_COMMENT>
Pregnane X Receptor Activator

> <PUBCHEM_SUBSTANCE_SYNONYM>
1434-54-4
BIDD:PXR0018
PCN

> <PUBCHEM_GENERIC_REGISTRY_NAME>
1434-54-4

> <PUBCHEM_XREF_EXT_ID>
BIDD:PXR0018

> <PUBCHEM_PUBMED_ID>
10748001
12840222
17003167

> <PUBCHEM_CID_ASSOCIATIONS>
15032  1

> <PUBCHEM_CONFORMER_ID>
058D9DBC00010001

> <PUBCHEM_COORDINATE_TYPE>
2
3

$$$$
103849591
  -OEChem-04041605452D

 38 40  0     1  0  0  0  0  0999 V2000
    0.0000    0.0000    0.0000 Na  0  3  0  0  0  0  0  0  0  0  0  0
    6.1931   -2.5565    0.0000 O   0  0  0  0  0  0  0  0  0  0  0  0
    7.0149    2.1043    0.0000 O   0  0  0  0  0  0  0  0  0  0  0  0
    8.1933    0.1990    0.0000 O   0  0  0  0  0  0  0  0  0  0  0  0
    7.6451   -2.3265    0.0000 O   0  0  0  0  0  0  0  0  0  0  0  0
    8.3007    1.3916    0.0000 O   0  0  0  0  0  0  0  0  0  0  0  0
    4.7410   -2.3265    0.0000 O   0  0  0  0  0  0  0  0  0  0  0  0
    5.5717    2.3848    0.0000 O   0  0  0  0  0  0  0  0  0  0  0  0
    7.9520   -1.9942    0.0000 O   0  0  0  0  0  0  0  0  0  0  0  0
    3.6625   -0.4329    0.0000 O   0  5  0  0  0  0  0  0  0  0  0  0
    3.0982    1.1176    0.0000 O   0  0  0  0  0  0  0  0  0  0  0  0
    2.0036    2.0361    0.0000 O   0  0  0  0  0  0  0  0  0  0  0  0
    6.6056   -1.2870    0.0000 C   0  0  0  0  0  0  0  0  0  0  0  0
    7.2375   -0.7567    0.0000 C   0  0  3  0  0  0  0  0  0  0  0  0
    6.9683    0.7703    0.0000 C   0  0  0  0  0  0  0  0  0  0  0  0
    5.7806   -1.2870    0.0000 C   0  0  0  0  0  0  0  0  0  0  0  0
    7.3808    0.0558    0.0000 C   0  0  3  0  0  0  0  0  0  0  0  0
    6.1931    1.0524    0.0000 C   0  0  0  0  0  0  0  0  0  0  0  0
    6.8605   -2.0716    0.0000 C   0  0  0  0  0  0  0  0  0  0  0  0
    7.4762    1.4204    0.0000 C   0  0  0  0  0  0  0  0  0  0  0  0
    5.5256   -2.0716    0.0000 C   0  0  0  0  0  0  0  0  0  0  0  0
    5.0053    0.0558    0.0000 C   0  0  3  0  0  0  0  0  0  0  0  0
    6.2218    1.8769    0.0000 C   0  0  0  0  0  0  0  0  0  0  0  0
    5.1486   -0.7567    0.0000 C   0  0  0  0  0  0  0  0  0  0  0  0
    5.4178    0.7703    0.0000 C   0  0  0  0  0  0  0  0  0  0  0  0
    7.9520   -1.1692    0.0000 C   0  0  3  0  0  0  0  0  0  0  0  0
    4.1928    0.1990    0.0000 C   0  0  3  0  0  0  0  0  0  0  0  0
    3.9107    0.9743    0.0000 C   0  0  3  0  0  0  0  0  0  0  0  0
    8.6665   -0.7567    0.0000 C   0  0  0  0  0  0  0  0  0  0  0  0
    4.4410    1.6063    0.0000 C   0  0  0  0  0  0  0  0  0  0  0  0
    9.3809   -1.1692    0.0000 C   0  0  0  0  0  0  0  0  0  0  0  0
    2.8160    1.8928    0.0000 C   0  0  0  0  0  0  0  0  0  0  0  0
    4.1588    2.3815    0.0000 C   0  0  0  0  0  0  0  0  0  0  0  0
    3.3463    2.5248    0.0000 C   0  0  0  0  0  0  0  0  0  0  0  0
   10.0954   -0.7567    0.0000 C   0  0  0  0  0  0  0  0  0  0  0  0
   10.8099   -1.1692    0.0000 C   0  0  0  0  0  0  0  0  0  0  0  0
   11.5244   -0.7567    0.0000 C   0  0  0  0  0  0  0  0  0  0  0  0
   12.2388   -1.1692    0.0000 C   0  0  0  0  0  0  0  0  0  0  0  0
  2 19  1  0  0  0  0
  2 21  1  0  0  0  0
  3 20  1  0  0  0  0
  3 23  1  0  0  0  0
  4 17  1  0  0  0  0
  5 19  2  0  0  0  0
  6 20  2  0  0  0  0
  7 21  2  0  0  0  0
  8 23  2  0  0  0  0
  9 26  1  0  0  0  0
 10 27  1  0  0  0  0
 11 28  1  0  0  0  0
 11 32  1  0  0  0  0
 12 32  2  0  0  0  0
 13 14  1  0  0  0  0
 13 16  2  0  0  0  0
 13 19  1  0  0  0  0
 14 17  1  0  0  0  0
 14 26  1  0  0  0  0
 15 17  1  0  0  0  0
 15 18  2  0  0  0  0
 15 20  1  0  0  0  0
 16 21  1  0  0  0  0
 16 24  1  0  0  0  0
 18 23  1  0  0  0  0
 18 25  1  0  0  0  0
 22 24  1  0  0  0  0
 22 25  1  0  0  0  0
 22 27  1  0  0  0  0
 26 29  1  0  0  0  0
 27 28  1  0  0  0  0
 28 30  1  0  0  0  0
 29 31  1  0  0  0  0
 30 33  2  0  0  0  0
 31 35  1  0  0  0  0
 32 34  1  0  0  0  0
 33 34  1  0  0  0  0
 35 36  1  0  0  0  0
 36 37  1  0  0  0  0
 37 38  1  0  0  0  0
M  CHG  2   1   1  10  -1
M  END
> <PUBCHEM_COMPOUND_ID_TYPE>
0

> <PUBCHEM_TOTAL_CHARGE>
0

> <PUBCHEM_SUBSTANCE_ID>
103849591

> <PUBCHEM_SUBSTANCE_VERSION>
1

> <PUBCHEM_EXT_DATASOURCE_NAME>
AAA Chemistry

> <PUBCHEM_EXT_DATASOURCE_REGID>
AR-1L5393

> <PUBCHEM_SUBSTANCE_SYNONYM>
299-78-5
AR-1L5393
sodium[4-hydroxy-5-(1-hydroxyheptyl)-1,3,6,8-tetraoxo-3,4,5,6,8,9,10,11-octahydro-1h-cyclonona[1,2-c:5,6-c']difuran-10-yl](6-oxo-5,6-dihydro-2h-pyran-2-yl)methanolate

> <PUBCHEM_GENERIC_REGISTRY_NAME>
299-78-5

> <PUBCHEM_XREF_EXT_ID>
AR-1L5393

> <PUBCHEM_EXT_DATASOURCE_URL>
http://www.aaa-chem.com

> <PUBCHEM_CID_ASSOCIATIONS>
23681558  1
212877  2
5360545  2

> <PUBCHEM_COORDINATE_TYPE>
1
3

$$$$
124966219
  -OEChem-04041605452D

 28 31  0     1  0  0  0  0  0999 V2000
    3.4888    1.3694    0.0000 O   0  0  0  0  0  0  0  0  0  0  0  0
   -3.5321   -0.0136    0.0000 O   0  0  0  0  0  0  0  0  0  0  0  0
    3.9464   -0.5222    0.0000 N   0  0  0  0  0  0  0  0  0  0  0  0
    0.2482   -0.0634    0.0000 C   0  0  3  0  0  0  0  0  0  0  0  0
    1.0604    0.0818    0.0000 C   0  0  3  0  0  0  0  0  0  0  0  0
   -0.2836    0.5673    0.0000 C   0  0  3  0  0  0  0  0  0  0  0  0
    1.3407    0.8577    0.0000 C   0  0  3  0  0  0  0  0  0  0  0  0
   -1.0957    0.4220    0.0000 C   0  0  3  0  0  0  0  0  0  0  0  0
    2.1652    0.8309    0.0000 C   0  0  3  0  0  0  0  0  0  0  0  0
    1.7117   -0.4246    0.0000 C   0  0  0  0  0  0  0  0  0  0  0  0
   -0.0033    1.3432    0.0000 C   0  0  0  0  0  0  0  0  0  0  0  0
    0.8088    1.4884    0.0000 C   0  0  0  0  0  0  0  0  0  0  0  0
   -0.0321   -0.8394    0.0000 C   0  0  0  0  0  0  0  0  0  0  0  0
    2.3945    0.0384    0.0000 C   0  0  3  0  0  0  0  0  0  0  0  0
   -1.3760   -0.3539    0.0000 C   0  0  0  0  0  0  0  0  0  0  0  0
   -0.8442   -0.9846    0.0000 C   0  0  0  0  0  0  0  0  0  0  0  0
   -1.6275    1.0528    0.0000 C   0  0  0  0  0  0  0  0  0  0  0  0
    1.7005    1.6001    0.0000 C   0  0  0  0  0  0  0  0  0  0  0  0
    2.6716    1.4822    0.0000 C   0  0  0  0  0  0  0  0  0  0  0  0
   -0.8154    1.1980    0.0000 C   0  0  0  0  0  0  0  0  0  0  0  0
   -2.1881   -0.4991    0.0000 C   0  0  0  0  0  0  0  0  0  0  0  0
    3.1705   -0.2419    0.0000 C   0  0  0  0  0  0  0  0  0  0  0  0
   -2.4396    0.9075    0.0000 C   0  0  0  0  0  0  0  0  0  0  0  0
   -2.7199    0.1316    0.0000 C   0  0  3  0  0  0  0  0  0  0  0  0
    2.3607    2.2464    0.0000 C   0  0  0  0  0  0  0  0  0  0  0  0
   -0.5487   -0.2769    0.0000 H   0  0  0  0  0  0  0  0  0  0  0  0
    0.8627   -0.7192    0.0000 H   0  0  0  0  0  0  0  0  0  0  0  0
    0.5133    0.7808    0.0000 H   0  0  0  0  0  0  0  0  0  0  0  0
  1 19  2  0  0  0  0
 24  2  1  1  0  0  0
  3 22  3  0  0  0  0
  4  5  1  0  0  0  0
  4  6  1  0  0  0  0
  4 13  1  0  0  0  0
  4 26  1  1  0  0  0
  5  7  1  0  0  0  0
  5 10  1  0  0  0  0
  5 27  1  6  0  0  0
  6  8  1  0  0  0  0
  6 11  1  0  0  0  0
  6 28  1  6  0  0  0
  7  9  1  0  0  0  0
  7 12  1  0  0  0  0
  7 18  1  1  0  0  0
  8 15  1  0  0  0  0
  8 17  1  0  0  0  0
  8 20  1  1  0  0  0
  9 14  1  0  0  0  0
  9 19  1  1  0  0  0
 10 14  1  0  0  0  0
 11 12  1  0  0  0  0
 13 16  1  0  0  0  0
 14 22  1  6  0  0  0
 15 16  2  0  0  0  0
 15 21  1  0  0  0  0
 17 23  1  0  0  0  0
 19 25  1  0  0  0  0
 21 24  1  0  0  0  0
 23 24  1  0  0  0  0
M  END
> <PUBCHEM_COMPOUND_ID_TYPE>
0

> <PUBCHEM_TOTAL_CHARGE>
0

> <PUBCHEM_SUBSTANCE_ID>
124966219

> <PUBCHEM_SUBSTANCE_VERSION>
6

> <PUBCHEM_EXT_DATASOURCE_NAME>
ChEMBL

> <PUBCHEM_EXT_DATASOURCE_REGID>
CHEMBL1400945

> <PUBCHEM_SUBSTANCE_SYNONYM>
CHEBI:35591
CHEMBL1400945
Pregnenolone 16 Alpha Carbonitrile
Pregnenolone-16Alpha-Carbonitrile

> <PUBCHEM_XREF_EXT_ID>
CHEMBL1400945

> <PUBCHEM_EXT_DATASOURCE_URL>
https://www.ebi.ac.uk/chembldb

> <PUBCHEM_EXT_SUBSTANCE_URL>
https://www.ebi.ac.uk/chembldb/index.php/compound/inspect/CHEMBL1400945

> <PUBCHEM_CID_ASSOCIATIONS>
15032  1

> <PUBCHEM_COORDINATE_TYPE>
1
3

> <PUBCHEM_BONDANNOTATIONS>
14  22  6
24  2  5
4  26  5
5  27  6
6  28  6
7  18  5
8  20  5
9  19  5

$$$$
134224577
  -OEChem-04041605452D

  0  0  0     0  0  0  0  0  0999 V2000
M  END
> <PUBCHEM_COMPOUND_ID_TYPE>
0

> <PUBCHEM_SUBS_AUTO_STRUCTURE>
Deposited Substance chemical structure was generated via Synonym(s) "299-78-5", "ALLYLISOPROPYLACETAMIDE" and MeSH to be CID 9297

> <PUBCHEM_SUBSTANCE_ID>
134224577

> <PUBCHEM_SUBSTANCE_VERSION>
5

> <PUBCHEM_EXT_DATASOURCE_NAME>
Comparative Toxicogenomics Database

> <PUBCHEM_EXT_DATASOURCE_REGID>
D000502

> <PUBCHEM_SUBSTANCE_COMMENT>
The Comparative Toxicogenomics Database (CTD) promotes understanding about the effects of environmental chemicals
on human health by curating chemical-gene/protein interactions and chemical- and gene-disease relationships from
the literature.  Click on these links to find specific, curated data for this chemical at CTD:
<a href="http://ctdbase.org/detail.go?view=gene&type=chem&acc=D000502">Genes and Proteins</a>
<a href="http://ctdbase.org/detail.go?view=ixn&type=chem&acc=D000502">Chemical-Gene Interactions</a>
<a href="http://ctdbase.org/detail.go?view=disease&type=chem&acc=D000502">Diseases</a>
<a href="http://ctdbase.org/detail.go?view=pathway&type=chem&acc=D000502">Pathways</a>
Depositor-supplied synonyms are taken from MeSH (Medical Subject Headings).

> <PUBCHEM_SUBSTANCE_SYNONYM>
2 Isopropyl 4 Pentenamide
2-Isopropyl-4-Pentenamide
299-78-5
4-Pentenamide, 2-(1-methylethyl)-
Allylisopropylacetamide
D000502

> <PUBCHEM_GENERIC_REGISTRY_NAME>
299-78-5

> <PUBCHEM_XREF_EXT_ID>
D000502

> <PUBCHEM_NCBI_TAXONOMY_ID>
10116

> <PUBCHEM_NCBI_GENE_ID>
24505

> <PUBCHEM_PUBMED_ID>
7728901
21889565

> <PUBCHEM_EXT_DATASOURCE_URL>
http://ctdbase.org/

> <PUBCHEM_EXT_SUBSTANCE_URL>
http://ctdbase.org/detail.go?type=chem&acc=D000502

> <PUBCHEM_CID_ASSOCIATIONS>
9297  1

$$$$
134975278
  -OEChem-04041605452D

 10  9  0     1  0  0  0  0  0999 V2000
    0.8552   -1.3207    0.0000 O   0  0  0  0  0  0  0  0  0  0  0  0
    1.5690   -0.0828    0.0000 N   0  0  0  0  0  0  0  0  0  0  0  0
    0.1414   -0.0828    0.0000 C   0  0  3  0  0  0  0  0  0  0  0  0
    0.8552   -0.4966    0.0000 C   0  0  0  0  0  0  0  0  0  0  0  0
    0.1414    0.7414    0.0000 C   0  0  0  0  0  0  0  0  0  0  0  0
   -0.5690   -0.4966    0.0000 C   0  0  0  0  0  0  0  0  0  0  0  0
   -1.2828   -0.0828    0.0000 C   0  0  0  0  0  0  0  0  0  0  0  0
    0.8586    1.1552    0.0000 C   0  0  0  0  0  0  0  0  0  0  0  0
   -0.5724    1.1552    0.0000 C   0  0  0  0  0  0  0  0  0  0  0  0
   -1.9966   -0.4966    0.0000 C   0  0  0  0  0  0  0  0  0  0  0  0
  1  4  2  0  0  0  0
  2  4  1  0  0  0  0
  3  4  1  0  0  0  0
  3  5  1  0  0  0  0
  3  6  1  0  0  0  0
  5  8  1  0  0  0  0
  5  9  1  0  0  0  0
  6  7  1  0  0  0  0
  7 10  2  0  0  0  0
M  END
> <PUBCHEM_COMPOUND_ID_TYPE>
0

> <PUBCHEM_TOTAL_CHARGE>
0

> <PUBCHEM_SUBSTANCE_ID>
134975278

> <PUBCHEM_SUBSTANCE_VERSION>
1

> <PUBCHEM_EXT_DATASOURCE_NAME>
ChemIDplus

> <PUBCHEM_EXT_DATASOURCE_REGID>
0000299785

> <PUBCHEM_SUBSTANCE_SYNONYM>
299-78-5
4-Pentenamide, 2-(1-methylethyl)-
AI3-61022
Allylisopropylacetamide

> <PUBCHEM_GENERIC_REGISTRY_NAME>
299-78-5

> <PUBCHEM_XREF_EXT_ID>
0000299785

> <PUBCHEM_EXT_DATASOURCE_URL>
http://chem.sis.nlm.nih.gov/chemidplus/

> <PUBCHEM_EXT_SUBSTANCE_URL>
http://chem.sis.nlm.nih.gov/chemidplus/direct.jsp?result=advanced&regno=0000299785

> <PUBCHEM_CID_ASSOCIATIONS>
9297  1

> <PUBCHEM_COORDINATE_TYPE>
1
3

$$$$
134979493
  -OEChem-04041605452D

 28 31  0     1  0  0  0  0  0999 V2000
    0.9759    2.1517    0.0000 O   0  0  0  0  0  0  0  0  0  0  0  0
   -3.4552   -1.8759    0.0000 O   0  0  0  0  0  0  0  0  0  0  0  0
    3.7207    1.4172    0.0000 N   0  0  0  0  0  0  0  0  0  0  0  0
    0.0483   -0.6621    0.0000 C   0  0  3  0  0  0  0  0  0  0  0  0
    0.7793   -0.2379    0.0000 C   0  0  3  0  0  0  0  0  0  0  0  0
   -0.6897   -0.2379    0.0000 C   0  0  3  0  0  0  0  0  0  0  0  0
    0.7793    0.5897    0.0000 C   0  0  3  0  0  0  0  0  0  0  0  0
   -1.4276   -0.6621    0.0000 C   0  0  3  0  0  0  0  0  0  0  0  0
    1.5483    1.0241    0.0000 C   0  0  3  0  0  0  0  0  0  0  0  0
    2.2931   -0.2379    0.0000 C   0  0  0  0  0  0  0  0  0  0  0  0
   -0.6897    0.5897    0.0000 C   0  0  0  0  0  0  0  0  0  0  0  0
    0.0483    1.0241    0.0000 C   0  0  0  0  0  0  0  0  0  0  0  0
    0.0483   -1.5172    0.0000 C   0  0  0  0  0  0  0  0  0  0  0  0
    2.2931    0.5897    0.0000 C   0  0  3  0  0  0  0  0  0  0  0  0
   -1.4276   -1.5172    0.0000 C   0  0  0  0  0  0  0  0  0  0  0  0
   -0.6897   -1.9345    0.0000 C   0  0  0  0  0  0  0  0  0  0  0  0
   -2.1793   -0.2379    0.0000 C   0  0  0  0  0  0  0  0  0  0  0  0
    0.7793    1.2172    0.0000 C   0  0  0  0  0  0  0  0  0  0  0  0
    1.5483    1.5931    0.0000 C   0  0  0  0  0  0  0  0  0  0  0  0
   -1.4276   -0.0138    0.0000 C   0  0  0  0  0  0  0  0  0  0  0  0
   -2.1793   -1.9345    0.0000 C   0  0  0  0  0  0  0  0  0  0  0  0
    3.0103    1.0000    0.0000 C   0  0  0  0  0  0  0  0  0  0  0  0
   -2.9241   -0.6621    0.0000 C   0  0  0  0  0  0  0  0  0  0  0  0
   -2.9241   -1.5241    0.0000 C   0  0  3  0  0  0  0  0  0  0  0  0
    2.1310    2.0966    0.0000 C   0  0  0  0  0  0  0  0  0  0  0  0
    0.0414    0.1655    0.0000 H   0  0  0  0  0  0  0  0  0  0  0  0
    0.7724   -1.0621    0.0000 H   0  0  0  0  0  0  0  0  0  0  0  0
   -0.6966   -1.0621    0.0000 H   0  0  0  0  0  0  0  0  0  0  0  0
  1 19  2  0  0  0  0
 24  2  1  1  0  0  0
  3 22  3  0  0  0  0
  4  5  1  0  0  0  0
  4  6  1  0  0  0  0
  4 13  1  0  0  0  0
  4 26  1  1  0  0  0
  5  7  1  0  0  0  0
  5 10  1  0  0  0  0
  5 27  1  6  0  0  0
  6  8  1  0  0  0  0
  6 11  1  0  0  0  0
  6 28  1  6  0  0  0
  7  9  1  0  0  0  0
  7 12  1  0  0  0  0
  7 18  1  1  0  0  0
  8 15  1  0  0  0  0
  8 17  1  0  0  0  0
  8 20  1  1  0  0  0
  9 14  1  0  0  0  0
  9 19  1  1  0  0  0
 10 14  1  0  0  0  0
 11 12  1  0  0  0  0
 13 16  1  0  0  0  0
 14 22  1  6  0  0  0
 15 16  2  0  0  0  0
 15 21  1  0  0  0  0
 17 23  1  0  0  0  0
 19 25  1  0  0  0  0
 21 24  1  0  0  0  0
 23 24  1  0  0  0  0
M  END
> <PUBCHEM_COMPOUND_ID_TYPE>
0

> <PUBCHEM_TOTAL_CHARGE>
0

> <PUBCHEM_SUBSTANCE_ID>
134979493

> <PUBCHEM_SUBSTANCE_VERSION>
1

> <PUBCHEM_EXT_DATASOURCE_NAME>
ChemIDplus

> <PUBCHEM_EXT_DATASOURCE_REGID>
0001434544

> <PUBCHEM_SUBSTANCE_SYNONYM>
1434-54-4
3beta-Hydroxy-20-oxo-5-pregnene-16alpha-carbonitrile
CCRIS 9224
Pregn-5-ene-16-carbonitrile, 3-hydroxy-20-oxo-, (3beta,16alpha)-
Pregnenolone 16alpha-carbonitrile
Pregnenolone carbonitrile
Pregnenolone-16alpha-carbonitrile

> <PUBCHEM_GENERIC_REGISTRY_NAME>
1434-54-4

> <PUBCHEM_XREF_EXT_ID>
0001434544

> <PUBCHEM_EXT_DATASOURCE_URL>
http://chem.sis.nlm.nih.gov/chemidplus/

> <PUBCHEM_EXT_SUBSTANCE_URL>
http://chem.sis.nlm.nih.gov/chemidplus/direct.jsp?result=advanced&regno=0001434544

> <PUBCHEM_CID_ASSOCIATIONS>
15032  1

> <PUBCHEM_COORDINATE_TYPE>
1
3

> <PUBCHEM_BONDANNOTATIONS>
14  22  6
24  2  5
4  26  5
5  27  6
6  28  6
7  18  5
8  20  5
9  19  5

$$$$
135021019
  -OEChem-04041605452D

 54 58  0     1  0  0  0  0  0999 V2000
    4.6816   -9.7341    0.0000 S   0  0  0  0  0  0  0  0  0  0  0  0
   17.7601   -8.4066    0.0000 S   0  0  0  0  0  0  0  0  0  0  0  0
    7.7183   -7.5046    0.0000 O   0  0  0  0  0  0  0  0  0  0  0  0
    9.8617   -9.5671    0.0000 O   0  0  0  0  0  0  0  0  0  0  0  0
   15.5774   -8.7421    0.0000 O   0  0  0  0  0  0  0  0  0  0  0  0
    8.4327   -4.6171    0.0000 O   0  0  0  0  0  0  0  0  0  0  0  0
   14.8630   -7.5046    0.0000 O   0  0  0  0  0  0  0  0  0  0  0  0
    7.0038   -8.7421    0.0000 N   0  0  0  0  0  0  0  0  0  0  0  0
    4.8212   -8.4066    0.0000 N   0  0  0  0  0  0  0  0  0  0  0  0
    8.4327   -8.7421    0.0000 N   0  0  0  0  0  0  0  0  0  0  0  0
   10.5761   -8.3296    0.0000 N   0  0  0  0  0  0  0  0  0  0  0  0
    8.4327   -6.2671    0.0000 N   0  0  0  0  0  0  0  0  0  0  0  0
   14.1485   -8.7421    0.0000 N   0  0  0  0  0  0  0  0  0  0  0  0
   17.8996   -9.7341    0.0000 N   0  0  0  0  0  0  0  0  0  0  0  0
    5.5748   -8.7421    0.0000 C   0  0  0  0  0  0  0  0  0  0  0  0
    9.1472   -8.3296    0.0000 C   0  0  3  0  0  0  0  0  0  0  0  0
    4.2691   -9.0197    0.0000 C   0  0  0  0  0  0  0  0  0  0  0  0
    7.7183   -8.3296    0.0000 C   0  0  0  0  0  0  0  0  0  0  0  0
    9.8617   -8.7421    0.0000 C   0  0  0  0  0  0  0  0  0  0  0  0
    6.2893   -8.3296    0.0000 C   0  0  0  0  0  0  0  0  0  0  0  0
    5.4886   -9.5626    0.0000 C   0  0  0  0  0  0  0  0  0  0  0  0
   11.2906   -8.7421    0.0000 C   0  0  3  0  0  0  0  0  0  0  0  0
    3.4487   -8.9334    0.0000 C   0  0  0  0  0  0  0  0  0  0  0  0
    9.1472   -7.5046    0.0000 C   0  0  0  0  0  0  0  0  0  0  0  0
   11.2906   -9.5671    0.0000 C   0  0  0  0  0  0  0  0  0  0  0  0
   12.0051   -8.3296    0.0000 C   0  0  0  0  0  0  0  0  0  0  0  0
   13.4340   -8.3296    0.0000 C   0  0  3  0  0  0  0  0  0  0  0  0
   12.0051   -9.9796    0.0000 C   0  0  0  0  0  0  0  0  0  0  0  0
    8.4327   -7.0921    0.0000 C   0  0  0  0  0  0  0  0  0  0  0  0
   12.7196   -8.7421    0.0000 C   0  0  0  0  0  0  0  0  0  0  0  0
    7.0038   -9.5671    0.0000 C   0  0  0  0  0  0  0  0  0  0  0  0
   13.4340   -7.5046    0.0000 C   0  0  0  0  0  0  0  0  0  0  0  0
   12.7196   -7.0921    0.0000 C   0  0  0  0  0  0  0  0  0  0  0  0
   14.8630   -8.3296    0.0000 C   0  0  0  0  0  0  0  0  0  0  0  0
   12.7196   -9.5671    0.0000 C   0  0  0  0  0  0  0  0  0  0  0  0
   12.0051  -10.8046    0.0000 C   0  0  0  0  0  0  0  0  0  0  0  0
    3.1131   -8.1798    0.0000 C   0  0  0  0  0  0  0  0  0  0  0  0
    2.9637   -9.6009    0.0000 C   0  0  0  0  0  0  0  0  0  0  0  0
    7.7183   -5.8546    0.0000 C   0  0  0  0  0  0  0  0  0  0  0  0
    9.1472   -5.8546    0.0000 C   0  0  0  0  0  0  0  0  0  0  0  0
   12.0051   -7.5046    0.0000 C   0  0  0  0  0  0  0  0  0  0  0  0
   12.7196   -6.2671    0.0000 C   0  0  0  0  0  0  0  0  0  0  0  0
   17.0064   -8.7421    0.0000 C   0  0  0  0  0  0  0  0  0  0  0  0
   13.4340   -9.9796    0.0000 C   0  0  0  0  0  0  0  0  0  0  0  0
   12.7196  -11.2171    0.0000 C   0  0  0  0  0  0  0  0  0  0  0  0
   16.2919   -8.3296    0.0000 C   0  0  0  0  0  0  0  0  0  0  0  0
    7.7183   -5.0296    0.0000 C   0  0  0  0  0  0  0  0  0  0  0  0
    9.1472   -5.0296    0.0000 C   0  0  0  0  0  0  0  0  0  0  0  0
   13.4340  -10.8046    0.0000 C   0  0  0  0  0  0  0  0  0  0  0  0
   11.2906   -7.0921    0.0000 C   0  0  0  0  0  0  0  0  0  0  0  0
   12.0051   -5.8546    0.0000 C   0  0  0  0  0  0  0  0  0  0  0  0
   17.0926   -9.5626    0.0000 C   0  0  0  0  0  0  0  0  0  0  0  0
   11.2906   -6.2671    0.0000 C   0  0  0  0  0  0  0  0  0  0  0  0
   18.3121   -9.0197    0.0000 C   0  0  0  0  0  0  0  0  0  0  0  0
  1 17  1  0  0  0  0
  1 21  1  0  0  0  0
  2 43  1  0  0  0  0
  2 54  1  0  0  0  0
  3 18  2  0  0  0  0
  4 19  2  0  0  0  0
  5 34  1  0  0  0  0
  5 46  1  0  0  0  0
  6 47  1  0  0  0  0
  6 48  1  0  0  0  0
  7 34  2  0  0  0  0
  8 18  1  0  0  0  0
  8 20  1  0  0  0  0
  8 31  1  0  0  0  0
  9 15  1  0  0  0  0
  9 17  2  0  0  0  0
 10 16  1  0  0  0  0
 10 18  1  0  0  0  0
 11 19  1  0  0  0  0
 11 22  1  0  0  0  0
 12 29  1  0  0  0  0
 12 39  1  0  0  0  0
 12 40  1  0  0  0  0
 13 27  1  0  0  0  0
 13 34  1  0  0  0  0
 14 52  1  0  0  0  0
 14 54  2  0  0  0  0
 15 20  1  0  0  0  0
 15 21  2  0  0  0  0
 16 19  1  0  0  0  0
 16 24  1  1  0  0  0
 17 23  1  0  0  0  0
 22 25  1  6  0  0  0
 22 26  1  0  0  0  0
 23 37  1  0  0  0  0
 23 38  1  0  0  0  0
 24 29  1  0  0  0  0
 25 28  1  0  0  0  0
 26 30  1  0  0  0  0
 27 30  1  0  0  0  0
 27 32  1  6  0  0  0
 28 35  2  0  0  0  0
 28 36  1  0  0  0  0
 32 33  1  0  0  0  0
 33 41  2  0  0  0  0
 33 42  1  0  0  0  0
 35 44  1  0  0  0  0
 36 45  2  0  0  0  0
 39 47  1  0  0  0  0
 40 48  1  0  0  0  0
 41 50  1  0  0  0  0
 42 51  2  0  0  0  0
 43 46  1  0  0  0  0
 43 52  2  0  0  0  0
 44 49  2  0  0  0  0
 45 49  1  0  0  0  0
 50 53  2  0  0  0  0
 51 53  1  0  0  0  0
M  END
> <PUBCHEM_COMPOUND_ID_TYPE>
0

> <PUBCHEM_TOTAL_CHARGE>
0

> <PUBCHEM_SUBSTANCE_ID>
135021019

> <PUBCHEM_SUBSTANCE_VERSION>
3

> <PUBCHEM_EXT_DATASOURCE_NAME>
ChemIDplus

> <PUBCHEM_EXT_DATASOURCE_REGID>
1004316884

> <PUBCHEM_SUBSTANCE_COMMENT>
Treatment of HIV-1 infection
1004316884

> <PUBCHEM_SUBSTANCE_SYNONYM>
1004316-88-4
2,7,10,12-Tetraazatridecanoic acid, 12-methyl-13-(2-(1-methylethyl)-4-thiazolyl)-9-(2-(4-morpholinyl)ethyl)-8,11-dioxo-3,6-bis(phenylmethyl)-, 5-thiazolylmethyl ester, (3R,6R,9S)-
Cobicistat
Cobicistat [USAN:INN]
Cobicistat [USAN]
GS 9350
GS-9350
Thiazol-5-ylmethyl ((1R,4R)-1-benzyl-4-({(2S)-2-((methyl{(2-(1-methylethyl)thiazol-4-yl)methyl}carbamoyl)amino)-4-(morpholin-4-yl)butanoyl}amino)-5-phenylpentyl)carbamate
UNII-LW2E03M5PG

> <PUBCHEM_GENERIC_REGISTRY_NAME>
1004316-88-4

> <PUBCHEM_XREF_EXT_ID>
1004316884

> <PUBCHEM_EXT_DATASOURCE_URL>
http://chem.sis.nlm.nih.gov/chemidplus/

> <PUBCHEM_EXT_SUBSTANCE_URL>
http://chem.sis.nlm.nih.gov/chemidplus/direct.jsp?result=advanced&regno=1004316884

> <PUBCHEM_CID_ASSOCIATIONS>
25151504  1

> <PUBCHEM_COORDINATE_TYPE>
1
3

> <PUBCHEM_BONDANNOTATIONS>
16  24  5
22  25  6
27  32  6

$$$$
135281734
  -OEChem-04041605452D

  0  0  0     0  0  0  0  0  0999 V2000
M  END
> <PUBCHEM_COMPOUND_ID_TYPE>
0

> <PUBCHEM_SUBS_AUTO_STRUCTURE>
Deposited Substance is allowed to be autogenerated

> <PUBCHEM_SUBSTANCE_ID>
135281734

> <PUBCHEM_SUBSTANCE_VERSION>
1

> <PUBCHEM_EXT_DATASOURCE_NAME>
ChemIDplus

> <PUBCHEM_EXT_DATASOURCE_REGID>
0009038146

> <PUBCHEM_SUBSTANCE_SYNONYM>
9038-14-6
Cytochrome P 450 monooxygenase
Monooxygenase

> <PUBCHEM_GENERIC_REGISTRY_NAME>
9038-14-6

> <PUBCHEM_XREF_EXT_ID>
0009038146

> <PUBCHEM_EXT_DATASOURCE_URL>
http://chem.sis.nlm.nih.gov/chemidplus/

> <PUBCHEM_EXT_SUBSTANCE_URL>
http://chem.sis.nlm.nih.gov/chemidplus/direct.jsp?result=advanced&regno=0009038146

$$$$
135281864
  -OEChem-04041605452D

  0  0  0     0  0  0  0  0  0999 V2000
M  END
> <PUBCHEM_COMPOUND_ID_TYPE>
0

> <PUBCHEM_SUBS_AUTO_STRUCTURE>
Deposited Substance is allowed to be autogenerated

> <PUBCHEM_SUBSTANCE_ID>
135281864

> <PUBCHEM_SUBSTANCE_VERSION>
1

> <PUBCHEM_EXT_DATASOURCE_NAME>
ChemIDplus

> <PUBCHEM_EXT_DATASOURCE_REGID>
0134712575

> <PUBCHEM_SUBSTANCE_SYNONYM>
134712-57-5
340805-67-6
5beta-Cholestane-3alpha,7alpha,12alpha-triol 27-hydroxylase
Cholesterol 27-hydroxylase
Cyp27A1
Cytochrome P-450 CYP27A1
Oxygenase, steroid 27-mono-
Steroid 27-monooxygenase
Sterol 27-hydroxylase

> <PUBCHEM_GENERIC_REGISTRY_NAME>
134712-57-5
340805-67-6

> <PUBCHEM_XREF_EXT_ID>
0134712575

> <PUBCHEM_EXT_DATASOURCE_URL>
http://chem.sis.nlm.nih.gov/chemidplus/

> <PUBCHEM_EXT_SUBSTANCE_URL>
http://chem.sis.nlm.nih.gov/chemidplus/direct.jsp?result=advanced&regno=0134712575

$$$$
135307869
  -OEChem-04041605452D

  0  0  0     0  0  0  0  0  0999 V2000
M  END
> <PUBCHEM_COMPOUND_ID_TYPE>
0

> <PUBCHEM_SUBS_AUTO_STRUCTURE>
Deposited Substance is allowed to be autogenerated

> <PUBCHEM_SUBSTANCE_ID>
135307869

> <PUBCHEM_SUBSTANCE_VERSION>
1

> <PUBCHEM_EXT_DATASOURCE_NAME>
ChemIDplus

> <PUBCHEM_EXT_DATASOURCE_REGID>
0009029689

> <PUBCHEM_SUBSTANCE_SYNONYM>
21-Hydroxylase
9029-68-9
Oxygenase, steroid 21-mono-
Steroid 21-monooxygenase

> <PUBCHEM_GENERIC_REGISTRY_NAME>
9029-68-9

> <PUBCHEM_XREF_EXT_ID>
0009029689

> <PUBCHEM_EXT_DATASOURCE_URL>
http://chem.sis.nlm.nih.gov/chemidplus/

> <PUBCHEM_EXT_SUBSTANCE_URL>
http://chem.sis.nlm.nih.gov/chemidplus/direct.jsp?result=advanced&regno=0009029689

$$$$
135348594
  -OEChem-04041605452D

  0  0  0     0  0  0  0  0  0999 V2000
M  END
> <PUBCHEM_COMPOUND_ID_TYPE>
0

> <PUBCHEM_SUBS_AUTO_STRUCTURE>
Deposited Substance is allowed to be autogenerated

> <PUBCHEM_SUBSTANCE_ID>
135348594

> <PUBCHEM_SUBSTANCE_VERSION>
1

> <PUBCHEM_EXT_DATASOURCE_NAME>
ChemIDplus

> <PUBCHEM_EXT_DATASOURCE_REGID>
0009035512

> <PUBCHEM_SUBSTANCE_SYNONYM>
9035-51-2
Cytochrome  m
Cytochrome P 450
Cytochrome P-450 Enzyme System
Cytochrome P-450-dependent monooxygenase
Cytochrome P450ii
P 450
Supermix

> <PUBCHEM_GENERIC_REGISTRY_NAME>
9035-51-2

> <PUBCHEM_XREF_EXT_ID>
0009035512

> <PUBCHEM_EXT_DATASOURCE_URL>
http://chem.sis.nlm.nih.gov/chemidplus/

> <PUBCHEM_EXT_SUBSTANCE_URL>
http://chem.sis.nlm.nih.gov/chemidplus/direct.jsp?result=advanced&regno=0009035512

$$$$
144213832
  -OEChem-04041605452D

 28 31  0     1  0  0  0  0  0999 V2000
    4.7795    0.0000    0.0000 O   0  0  0  0  0  0  0  0  0  0  0  0
    0.0000   -4.1386    0.0000 O   0  0  0  0  0  0  0  0  0  0  0  0
    6.8181   -2.7818    0.0000 N   0  0  0  0  0  0  0  0  0  0  0  0
    3.5863   -2.8909    0.0000 C   0  0  3  0  0  0  0  0  0  0  0  0
    4.3090   -2.4818    0.0000 C   0  0  3  0  0  0  0  0  0  0  0  0
    2.8704   -2.4818    0.0000 C   0  0  3  0  0  0  0  0  0  0  0  0
    4.3090   -1.6363    0.0000 C   0  0  3  0  0  0  0  0  0  0  0  0
    2.1613   -2.8909    0.0000 C   0  0  3  0  0  0  0  0  0  0  0  0
    5.0863   -1.3909    0.0000 C   0  0  3  0  0  0  0  0  0  0  0  0
    5.0863   -2.7272    0.0000 C   0  0  0  0  0  0  0  0  0  0  0  0
    2.8704   -1.6363    0.0000 C   0  0  0  0  0  0  0  0  0  0  0  0
    3.5863   -1.2273    0.0000 C   0  0  0  0  0  0  0  0  0  0  0  0
    3.5863   -3.7159    0.0000 C   0  0  0  0  0  0  0  0  0  0  0  0
    5.5772   -2.0590    0.0000 C   0  0  3  0  0  0  0  0  0  0  0  0
    2.1613   -3.7159    0.0000 C   0  0  0  0  0  0  0  0  0  0  0  0
    2.8704   -4.1318    0.0000 C   0  0  0  0  0  0  0  0  0  0  0  0
    1.4386   -2.4818    0.0000 C   0  0  0  0  0  0  0  0  0  0  0  0
    4.3090   -0.8182    0.0000 C   0  0  0  0  0  0  0  0  0  0  0  0
    5.3386   -0.5864    0.0000 C   0  0  0  0  0  0  0  0  0  0  0  0
    2.1613   -2.0590    0.0000 C   0  0  0  0  0  0  0  0  0  0  0  0
    1.4386   -4.1318    0.0000 C   0  0  0  0  0  0  0  0  0  0  0  0
    6.4091   -2.0590    0.0000 C   0  0  0  0  0  0  0  0  0  0  0  0
    0.7296   -2.8909    0.0000 C   0  0  0  0  0  0  0  0  0  0  0  0
    0.7296   -3.7159    0.0000 C   0  0  3  0  0  0  0  0  0  0  0  0
    6.1363   -0.4296    0.0000 C   0  0  0  0  0  0  0  0  0  0  0  0
    3.5863   -2.0659    0.0000 H   0  0  0  0  0  0  0  0  0  0  0  0
    4.3090   -3.3068    0.0000 H   0  0  0  0  0  0  0  0  0  0  0  0
    2.8704   -3.3068    0.0000 H   0  0  0  0  0  0  0  0  0  0  0  0
  1 19  2  0  0  0  0
 24  2  1  1  0  0  0
  3 22  3  0  0  0  0
  4  5  1  0  0  0  0
  4  6  1  0  0  0  0
  4 13  1  0  0  0  0
  4 26  1  1  0  0  0
  5  7  1  0  0  0  0
  5 10  1  0  0  0  0
  5 27  1  6  0  0  0
  6  8  1  0  0  0  0
  6 11  1  0  0  0  0
  6 28  1  6  0  0  0
  7  9  1  0  0  0  0
  7 12  1  0  0  0  0
  7 18  1  1  0  0  0
  8 15  1  0  0  0  0
  8 17  1  0  0  0  0
  8 20  1  1  0  0  0
  9 14  1  0  0  0  0
  9 19  1  1  0  0  0
 10 14  1  0  0  0  0
 11 12  1  0  0  0  0
 13 16  1  0  0  0  0
 14 22  1  6  0  0  0
 15 16  2  0  0  0  0
 15 21  1  0  0  0  0
 17 23  1  0  0  0  0
 19 25  1  0  0  0  0
 21 24  1  0  0  0  0
 23 24  1  0  0  0  0
M  END
> <PUBCHEM_COMPOUND_ID_TYPE>
0

> <PUBCHEM_TOTAL_CHARGE>
0

> <PUBCHEM_SUBSTANCE_ID>
144213832

> <PUBCHEM_SUBSTANCE_VERSION>
3

> <PUBCHEM_EXT_DATASOURCE_NAME>
824

> <PUBCHEM_EXT_DATASOURCE_REGID>
NCGC00257247-01

> <PUBCHEM_SUBSTANCE_COMMENT>
TOX21S_v5a

> <PUBCHEM_SUBSTANCE_SYNONYM>
CAS-1434-54-4
DSSTox_CID_17262
DSSTox_GSID_37262
DSSTox_RID_79317
NCGC00257247-01
Pregnenolone carbonitrile
Tox21_303525

> <PUBCHEM_XREF_EXT_ID>
NCGC00257247-01

> <PUBCHEM_EXT_DATASOURCE_URL>
https://tripod.nih.gov/tox21

> <PUBCHEM_EXT_SUBSTANCE_URL>
https://tripod.nih.gov/tox21/samples/Tox21_303525

> <PUBCHEM_CID_ASSOCIATIONS>
15032  1

> <PUBCHEM_COORDINATE_TYPE>
1
3

> <PUBCHEM_BONDANNOTATIONS>
14  22  6
24  2  5
4  26  5
5  27  6
6  28  6
7  18  5
8  20  5
9  19  5

$$$$
152258234
  -OEChem-04041605452D

 54 58  0     1  0  0  0  0  0999 V2000
   -6.6344   -1.1001    0.0000 S   0  0  0  0  0  0  0  0  0  0  0  0
    6.8178   -0.4870    0.0000 S   0  0  0  0  0  0  0  0  0  0  0  0
   -3.1911    0.4124    0.0000 O   0  0  0  0  0  0  0  0  0  0  0  0
   -1.0541   -1.6443    0.0000 O   0  0  0  0  0  0  0  0  0  0  0  0
    4.6406   -0.8193    0.0000 O   0  0  0  0  0  0  0  0  0  0  0  0
   -1.0541    3.2943    0.0000 O   0  0  0  0  0  0  0  0  0  0  0  0
    3.9303    0.4124    0.0000 O   0  0  0  0  0  0  0  0  0  0  0  0
   -3.9016   -0.8193    0.0000 N   0  0  0  0  0  0  0  0  0  0  0  0
   -5.4141   -1.6443    0.0000 N   0  0  0  0  0  0  0  0  0  0  0  0
   -2.4806   -0.8193    0.0000 N   0  0  0  0  0  0  0  0  0  0  0  0
   -0.3438   -0.4126    0.0000 N   0  0  0  0  0  0  0  0  0  0  0  0
   -1.0541    1.6443    0.0000 N   0  0  0  0  0  0  0  0  0  0  0  0
    3.2198   -0.8193    0.0000 N   0  0  0  0  0  0  0  0  0  0  0  0
    6.9609   -1.8162    0.0000 N   0  0  0  0  0  0  0  0  0  0  0  0
   -5.3281   -0.8193    0.0000 C   0  0  0  0  0  0  0  0  0  0  0  0
   -1.7645   -0.4126    0.0000 C   0  0  3  0  0  0  0  0  0  0  0  0
   -6.2219   -1.8162    0.0000 C   0  0  0  0  0  0  0  0  0  0  0  0
   -3.1911   -0.4126    0.0000 C   0  0  0  0  0  0  0  0  0  0  0  0
   -1.0541   -0.8193    0.0000 C   0  0  0  0  0  0  0  0  0  0  0  0
   -4.6119   -0.4126    0.0000 C   0  0  0  0  0  0  0  0  0  0  0  0
   -6.0786   -0.4870    0.0000 C   0  0  0  0  0  0  0  0  0  0  0  0
    0.3667   -0.8193    0.0000 C   0  0  3  0  0  0  0  0  0  0  0  0
   -6.5541   -2.5666    0.0000 C   0  0  0  0  0  0  0  0  0  0  0  0
   -1.7645    0.4124    0.0000 C   0  0  0  0  0  0  0  0  0  0  0  0
    0.3667   -1.6443    0.0000 C   0  0  0  0  0  0  0  0  0  0  0  0
    1.0828   -0.4126    0.0000 C   0  0  0  0  0  0  0  0  0  0  0  0
    2.5037   -0.4126    0.0000 C   0  0  3  0  0  0  0  0  0  0  0  0
    1.0828   -2.0568    0.0000 C   0  0  0  0  0  0  0  0  0  0  0  0
   -1.0541    0.8249    0.0000 C   0  0  0  0  0  0  0  0  0  0  0  0
    1.7933   -0.8193    0.0000 C   0  0  0  0  0  0  0  0  0  0  0  0
   -3.9016   -1.6443    0.0000 C   0  0  0  0  0  0  0  0  0  0  0  0
    2.5037    0.4124    0.0000 C   0  0  0  0  0  0  0  0  0  0  0  0
    1.7933    0.8249    0.0000 C   0  0  0  0  0  0  0  0  0  0  0  0
    3.9303   -0.4126    0.0000 C   0  0  0  0  0  0  0  0  0  0  0  0
    1.7933   -1.6443    0.0000 C   0  0  0  0  0  0  0  0  0  0  0  0
    1.0828   -2.8818    0.0000 C   0  0  0  0  0  0  0  0  0  0  0  0
   -7.3734   -2.6526    0.0000 C   0  0  0  0  0  0  0  0  0  0  0  0
   -6.0728   -3.2313    0.0000 C   0  0  0  0  0  0  0  0  0  0  0  0
   -0.3380    2.0568    0.0000 C   0  0  0  0  0  0  0  0  0  0  0  0
   -1.7703    2.0568    0.0000 C   0  0  0  0  0  0  0  0  0  0  0  0
    1.7933    1.6499    0.0000 C   0  0  0  0  0  0  0  0  0  0  0  0
    1.0772    0.4124    0.0000 C   0  0  0  0  0  0  0  0  0  0  0  0
    6.0672   -0.8193    0.0000 C   0  0  0  0  0  0  0  0  0  0  0  0
    2.5094   -2.0568    0.0000 C   0  0  0  0  0  0  0  0  0  0  0  0
    1.7933   -3.2943    0.0000 C   0  0  0  0  0  0  0  0  0  0  0  0
    5.3511   -0.4126    0.0000 C   0  0  0  0  0  0  0  0  0  0  0  0
   -0.3380    2.8818    0.0000 C   0  0  0  0  0  0  0  0  0  0  0  0
   -1.7703    2.8818    0.0000 C   0  0  0  0  0  0  0  0  0  0  0  0
    2.5094   -2.8818    0.0000 C   0  0  0  0  0  0  0  0  0  0  0  0
    1.0772    2.0624    0.0000 C   0  0  0  0  0  0  0  0  0  0  0  0
    0.3667    0.8249    0.0000 C   0  0  0  0  0  0  0  0  0  0  0  0
    6.1531   -1.6443    0.0000 C   0  0  0  0  0  0  0  0  0  0  0  0
    0.3667    1.6499    0.0000 C   0  0  0  0  0  0  0  0  0  0  0  0
    7.3734   -1.1001    0.0000 C   0  0  0  0  0  0  0  0  0  0  0  0
  1 17  1  0  0  0  0
  1 21  1  0  0  0  0
  2 43  1  0  0  0  0
  2 54  1  0  0  0  0
  3 18  2  0  0  0  0
  4 19  2  0  0  0  0
  5 34  1  0  0  0  0
  5 46  1  0  0  0  0
  6 47  1  0  0  0  0
  6 48  1  0  0  0  0
  7 34  2  0  0  0  0
  8 18  1  0  0  0  0
  8 20  1  0  0  0  0
  8 31  1  0  0  0  0
  9 15  1  0  0  0  0
  9 17  2  0  0  0  0
 10 16  1  0  0  0  0
 10 18  1  0  0  0  0
 11 19  1  0  0  0  0
 11 22  1  0  0  0  0
 12 29  1  0  0  0  0
 12 39  1  0  0  0  0
 12 40  1  0  0  0  0
 13 27  1  0  0  0  0
 13 34  1  0  0  0  0
 14 52  1  0  0  0  0
 14 54  2  0  0  0  0
 15 20  1  0  0  0  0
 15 21  2  0  0  0  0
 16 19  1  0  0  0  0
 16 24  1  1  0  0  0
 17 23  1  0  0  0  0
 22 25  1  6  0  0  0
 22 26  1  0  0  0  0
 23 37  1  0  0  0  0
 23 38  1  0  0  0  0
 24 29  1  0  0  0  0
 25 28  1  0  0  0  0
 26 30  1  0  0  0  0
 27 30  1  0  0  0  0
 27 32  1  6  0  0  0
 28 35  2  0  0  0  0
 28 36  1  0  0  0  0
 32 33  1  0  0  0  0
 33 41  2  0  0  0  0
 33 42  1  0  0  0  0
 35 44  1  0  0  0  0
 36 45  2  0  0  0  0
 39 47  1  0  0  0  0
 40 48  1  0  0  0  0
 41 50  1  0  0  0  0
 42 51  2  0  0  0  0
 43 46  1  0  0  0  0
 43 52  2  0  0  0  0
 44 49  2  0  0  0  0
 45 49  1  0  0  0  0
 50 53  2  0  0  0  0
 51 53  1  0  0  0  0
M  END
> <PUBCHEM_COMPOUND_ID_TYPE>
0

> <PUBCHEM_TOTAL_CHARGE>
0

> <PUBCHEM_SUBSTANCE_ID>
152258234

> <PUBCHEM_SUBSTANCE_VERSION>
4

> <PUBCHEM_EXT_DATASOURCE_NAME>
959

> <PUBCHEM_EXT_DATASOURCE_REGID>
HY-10493

> <PUBCHEM_SUBSTANCE_SYNONYM>
Cobicistat
HY-10493

> <PUBCHEM_XREF_EXT_ID>
HY-10493

> <PUBCHEM_EXT_DATASOURCE_URL>
http://www.medchemexpress.com

> <PUBCHEM_EXT_SUBSTANCE_URL>
http://www.medchemexpress.com/Cobicistat.html

> <PUBCHEM_CID_ASSOCIATIONS>
25151504  1

> <PUBCHEM_COORDINATE_TYPE>
1
3

> <PUBCHEM_BONDANNOTATIONS>
16  24  5
22  25  6
27  32  6

$$$$
160647070
  -OEChem-04041605452D

 54 58  0     1  0  0  0  0  0999 V2000
   -6.6344   -1.1001    0.0000 S   0  0  0  0  0  0  0  0  0  0  0  0
    6.8178   -0.4870    0.0000 S   0  0  0  0  0  0  0  0  0  0  0  0
   -3.1911    0.4124    0.0000 O   0  0  0  0  0  0  0  0  0  0  0  0
   -1.0541   -1.6443    0.0000 O   0  0  0  0  0  0  0  0  0  0  0  0
    4.6406   -0.8193    0.0000 O   0  0  0  0  0  0  0  0  0  0  0  0
   -1.0541    3.2943    0.0000 O   0  0  0  0  0  0  0  0  0  0  0  0
    3.9303    0.4124    0.0000 O   0  0  0  0  0  0  0  0  0  0  0  0
   -3.9016   -0.8193    0.0000 N   0  0  0  0  0  0  0  0  0  0  0  0
   -5.4141   -1.6443    0.0000 N   0  0  0  0  0  0  0  0  0  0  0  0
   -2.4806   -0.8193    0.0000 N   0  0  0  0  0  0  0  0  0  0  0  0
   -0.3438   -0.4126    0.0000 N   0  0  0  0  0  0  0  0  0  0  0  0
   -1.0541    1.6443    0.0000 N   0  0  0  0  0  0  0  0  0  0  0  0
    3.2198   -0.8193    0.0000 N   0  0  0  0  0  0  0  0  0  0  0  0
    6.9609   -1.8162    0.0000 N   0  0  0  0  0  0  0  0  0  0  0  0
   -5.3281   -0.8193    0.0000 C   0  0  0  0  0  0  0  0  0  0  0  0
   -1.7645   -0.4126    0.0000 C   0  0  3  0  0  0  0  0  0  0  0  0
   -6.2219   -1.8162    0.0000 C   0  0  0  0  0  0  0  0  0  0  0  0
   -3.1911   -0.4126    0.0000 C   0  0  0  0  0  0  0  0  0  0  0  0
   -1.0541   -0.8193    0.0000 C   0  0  0  0  0  0  0  0  0  0  0  0
   -4.6119   -0.4126    0.0000 C   0  0  0  0  0  0  0  0  0  0  0  0
   -6.0786   -0.4870    0.0000 C   0  0  0  0  0  0  0  0  0  0  0  0
    0.3667   -0.8193    0.0000 C   0  0  3  0  0  0  0  0  0  0  0  0
   -6.5541   -2.5666    0.0000 C   0  0  0  0  0  0  0  0  0  0  0  0
   -1.7645    0.4124    0.0000 C   0  0  0  0  0  0  0  0  0  0  0  0
    0.3667   -1.6443    0.0000 C   0  0  0  0  0  0  0  0  0  0  0  0
    1.0828   -0.4126    0.0000 C   0  0  0  0  0  0  0  0  0  0  0  0
    2.5037   -0.4126    0.0000 C   0  0  3  0  0  0  0  0  0  0  0  0
    1.0828   -2.0568    0.0000 C   0  0  0  0  0  0  0  0  0  0  0  0
   -1.0541    0.8249    0.0000 C   0  0  0  0  0  0  0  0  0  0  0  0
    1.7933   -0.8193    0.0000 C   0  0  0  0  0  0  0  0  0  0  0  0
   -3.9016   -1.6443    0.0000 C   0  0  0  0  0  0  0  0  0  0  0  0
    2.5037    0.4124    0.0000 C   0  0  0  0  0  0  0  0  0  0  0  0
    1.7933    0.8249    0.0000 C   0  0  0  0  0  0  0  0  0  0  0  0
    3.9303   -0.4126    0.0000 C   0  0  0  0  0  0  0  0  0  0  0  0
    1.7933   -1.6443    0.0000 C   0  0  0  0  0  0  0  0  0  0  0  0
    1.0828   -2.8818    0.0000 C   0  0  0  0  0  0  0  0  0  0  0  0
   -7.3734   -2.6526    0.0000 C   0  0  0  0  0  0  0  0  0  0  0  0
   -6.0728   -3.2313    0.0000 C   0  0  0  0  0  0  0  0  0  0  0  0
   -0.3380    2.0568    0.0000 C   0  0  0  0  0  0  0  0  0  0  0  0
   -1.7703    2.0568    0.0000 C   0  0  0  0  0  0  0  0  0  0  0  0
    1.7933    1.6499    0.0000 C   0  0  0  0  0  0  0  0  0  0  0  0
    1.0772    0.4124    0.0000 C   0  0  0  0  0  0  0  0  0  0  0  0
    6.0672   -0.8193    0.0000 C   0  0  0  0  0  0  0  0  0  0  0  0
    2.5094   -2.0568    0.0000 C   0  0  0  0  0  0  0  0  0  0  0  0
    1.7933   -3.2943    0.0000 C   0  0  0  0  0  0  0  0  0  0  0  0
    5.3511   -0.4126    0.0000 C   0  0  0  0  0  0  0  0  0  0  0  0
   -0.3380    2.8818    0.0000 C   0  0  0  0  0  0  0  0  0  0  0  0
   -1.7703    2.8818    0.0000 C   0  0  0  0  0  0  0  0  0  0  0  0
    2.5094   -2.8818    0.0000 C   0  0  0  0  0  0  0  0  0  0  0  0
    1.0772    2.0624    0.0000 C   0  0  0  0  0  0  0  0  0  0  0  0
    0.3667    0.8249    0.0000 C   0  0  0  0  0  0  0  0  0  0  0  0
    6.1531   -1.6443    0.0000 C   0  0  0  0  0  0  0  0  0  0  0  0
    0.3667    1.6499    0.0000 C   0  0  0  0  0  0  0  0  0  0  0  0
    7.3734   -1.1001    0.0000 C   0  0  0  0  0  0  0  0  0  0  0  0
  1 17  1  0  0  0  0
  1 21  1  0  0  0  0
  2 43  1  0  0  0  0
  2 54  1  0  0  0  0
  3 18  2  0  0  0  0
  4 19  2  0  0  0  0
  5 34  1  0  0  0  0
  5 46  1  0  0  0  0
  6 47  1  0  0  0  0
  6 48  1  0  0  0  0
  7 34  2  0  0  0  0
  8 18  1  0  0  0  0
  8 20  1  0  0  0  0
  8 31  1  0  0  0  0
  9 15  1  0  0  0  0
  9 17  2  0  0  0  0
 10 16  1  0  0  0  0
 10 18  1  0  0  0  0
 11 19  1  0  0  0  0
 11 22  1  0  0  0  0
 12 29  1  0  0  0  0
 12 39  1  0  0  0  0
 12 40  1  0  0  0  0
 13 27  1  0  0  0  0
 13 34  1  0  0  0  0
 14 52  1  0  0  0  0
 14 54  2  0  0  0  0
 15 20  1  0  0  0  0
 15 21  2  0  0  0  0
 16 19  1  0  0  0  0
 16 24  1  1  0  0  0
 17 23  1  0  0  0  0
 22 25  1  6  0  0  0
 22 26  1  0  0  0  0
 23 37  1  0  0  0  0
 23 38  1  0  0  0  0
 24 29  1  0  0  0  0
 25 28  1  0  0  0  0
 26 30  1  0  0  0  0
 27 30  1  0  0  0  0
 27 32  1  6  0  0  0
 28 35  2  0  0  0  0
 28 36  1  0  0  0  0
 32 33  1  0  0  0  0
 33 41  2  0  0  0  0
 33 42  1  0  0  0  0
 35 44  1  0  0  0  0
 36 45  2  0  0  0  0
 39 47  1  0  0  0  0
 40 48  1  0  0  0  0
 41 50  1  0  0  0  0
 42 51  2  0  0  0  0
 43 46  1  0  0  0  0
 43 52  2  0  0  0  0
 44 49  2  0  0  0  0
 45 49  1  0  0  0  0
 50 53  2  0  0  0  0
 51 53  1  0  0  0  0
M  END
> <PUBCHEM_COMPOUND_ID_TYPE>
0

> <PUBCHEM_TOTAL_CHARGE>
0

> <PUBCHEM_SUBSTANCE_ID>
160647070

> <PUBCHEM_SUBSTANCE_VERSION>
4

> <PUBCHEM_EXT_DATASOURCE_NAME>
1010

> <PUBCHEM_EXT_DATASOURCE_REGID>
CS-0742

> <PUBCHEM_SUBSTANCE_SYNONYM>
CS-0742
Cobicistat

> <PUBCHEM_XREF_EXT_ID>
CS-0742

> <PUBCHEM_EXT_DATASOURCE_URL>
http://www.chemscene.com

> <PUBCHEM_CID_ASSOCIATIONS>
25151504  1

> <PUBCHEM_COORDINATE_TYPE>
1
3

> <PUBCHEM_BONDANNOTATIONS>
16  24  5
22  25  6
27  32  6

$$$$
160697744
  -OEChem-04041605452D

 54 58  0     1  0  0  0  0  0999 V2000
   -7.5816   -2.5831    0.0000 S   0  0  0  0  0  0  0  0  0  0  0  0
    5.4968   -1.2555    0.0000 S   0  0  0  0  0  0  0  0  0  0  0  0
   -4.5450   -0.3536    0.0000 O   0  0  0  0  0  0  0  0  0  0  0  0
   -2.4016   -2.4161    0.0000 O   0  0  0  0  0  0  0  0  0  0  0  0
    3.3142   -1.5911    0.0000 O   0  0  0  0  0  0  0  0  0  0  0  0
   -3.8305    2.5340    0.0000 O   0  0  0  0  0  0  0  0  0  0  0  0
    2.5997   -0.3536    0.0000 O   0  0  0  0  0  0  0  0  0  0  0  0
   -5.2595   -1.5911    0.0000 N   0  0  0  0  0  0  0  0  0  0  0  0
   -7.4421   -1.2555    0.0000 N   0  0  0  0  0  0  0  0  0  0  0  0
   -3.8305   -1.5911    0.0000 N   0  0  0  0  0  0  0  0  0  0  0  0
   -1.6871   -1.1786    0.0000 N   0  0  0  0  0  0  0  0  0  0  0  0
   -3.8305    0.8839    0.0000 N   0  0  0  0  0  0  0  0  0  0  0  0
    1.8853   -1.5911    0.0000 N   0  0  0  0  0  0  0  0  0  0  0  0
    5.6363   -2.5831    0.0000 N   0  0  0  0  0  0  0  0  0  0  0  0
   -6.6884   -1.5911    0.0000 C   0  0  0  0  0  0  0  0  0  0  0  0
   -3.1160   -1.1786    0.0000 C   0  0  3  0  0  0  0  0  0  0  0  0
   -7.9941   -1.8686    0.0000 C   0  0  0  0  0  0  0  0  0  0  0  0
   -4.5450   -1.1786    0.0000 C   0  0  0  0  0  0  0  0  0  0  0  0
   -2.4016   -1.5911    0.0000 C   0  0  0  0  0  0  0  0  0  0  0  0
   -5.9739   -1.1786    0.0000 C   0  0  0  0  0  0  0  0  0  0  0  0
   -6.7746   -2.4116    0.0000 C   0  0  0  0  0  0  0  0  0  0  0  0
   -0.9726   -1.5911    0.0000 C   0  0  3  0  0  0  0  0  0  0  0  0
   -8.8146   -1.7824    0.0000 C   0  0  0  0  0  0  0  0  0  0  0  0
   -3.1160   -0.3536    0.0000 C   0  0  0  0  0  0  0  0  0  0  0  0
   -0.9726   -2.4161    0.0000 C   0  0  0  0  0  0  0  0  0  0  0  0
   -0.2582   -1.1786    0.0000 C   0  0  0  0  0  0  0  0  0  0  0  0
    1.1708   -1.1786    0.0000 C   0  0  3  0  0  0  0  0  0  0  0  0
   -0.2582   -2.8286    0.0000 C   0  0  0  0  0  0  0  0  0  0  0  0
   -3.8305    0.0589    0.0000 C   0  0  0  0  0  0  0  0  0  0  0  0
    0.4563   -1.5911    0.0000 C   0  0  0  0  0  0  0  0  0  0  0  0
   -5.2595   -2.4161    0.0000 C   0  0  0  0  0  0  0  0  0  0  0  0
    1.1708   -0.3536    0.0000 C   0  0  0  0  0  0  0  0  0  0  0  0
    0.4563    0.0589    0.0000 C   0  0  0  0  0  0  0  0  0  0  0  0
    2.5997   -1.1786    0.0000 C   0  0  0  0  0  0  0  0  0  0  0  0
    0.4563   -2.4160    0.0000 C   0  0  0  0  0  0  0  0  0  0  0  0
   -0.2582   -3.6536    0.0000 C   0  0  0  0  0  0  0  0  0  0  0  0
   -9.2995   -2.4498    0.0000 C   0  0  0  0  0  0  0  0  0  0  0  0
   -9.1501   -1.0287    0.0000 C   0  0  0  0  0  0  0  0  0  0  0  0
   -3.1160    1.2964    0.0000 C   0  0  0  0  0  0  0  0  0  0  0  0
   -4.5450    1.2964    0.0000 C   0  0  0  0  0  0  0  0  0  0  0  0
   -0.2582   -0.3536    0.0000 C   0  0  0  0  0  0  0  0  0  0  0  0
    0.4563    0.8840    0.0000 C   0  0  0  0  0  0  0  0  0  0  0  0
    4.7431   -1.5911    0.0000 C   0  0  0  0  0  0  0  0  0  0  0  0
    1.1708   -2.8285    0.0000 C   0  0  0  0  0  0  0  0  0  0  0  0
    0.4563   -4.0661    0.0000 C   0  0  0  0  0  0  0  0  0  0  0  0
    4.0287   -1.1786    0.0000 C   0  0  0  0  0  0  0  0  0  0  0  0
   -3.1160    2.1215    0.0000 C   0  0  0  0  0  0  0  0  0  0  0  0
   -4.5450    2.1215    0.0000 C   0  0  0  0  0  0  0  0  0  0  0  0
    1.1708   -3.6536    0.0000 C   0  0  0  0  0  0  0  0  0  0  0  0
   -0.9726    0.0589    0.0000 C   0  0  0  0  0  0  0  0  0  0  0  0
   -0.2581    1.2965    0.0000 C   0  0  0  0  0  0  0  0  0  0  0  0
    4.8294   -2.4116    0.0000 C   0  0  0  0  0  0  0  0  0  0  0  0
   -0.9726    0.8839    0.0000 C   0  0  0  0  0  0  0  0  0  0  0  0
    6.0488   -1.8686    0.0000 C   0  0  0  0  0  0  0  0  0  0  0  0
  1 17  1  0  0  0  0
  1 21  1  0  0  0  0
  2 43  1  0  0  0  0
  2 54  1  0  0  0  0
  3 18  2  0  0  0  0
  4 19  2  0  0  0  0
  5 34  1  0  0  0  0
  5 46  1  0  0  0  0
  6 47  1  0  0  0  0
  6 48  1  0  0  0  0
  7 34  2  0  0  0  0
  8 18  1  0  0  0  0
  8 20  1  0  0  0  0
  8 31  1  0  0  0  0
  9 15  1  0  0  0  0
  9 17  2  0  0  0  0
 10 16  1  0  0  0  0
 10 18  1  0  0  0  0
 11 19  1  0  0  0  0
 11 22  1  0  0  0  0
 12 29  1  0  0  0  0
 12 39  1  0  0  0  0
 12 40  1  0  0  0  0
 13 27  1  0  0  0  0
 13 34  1  0  0  0  0
 14 52  1  0  0  0  0
 14 54  2  0  0  0  0
 15 20  1  0  0  0  0
 15 21  2  0  0  0  0
 16 19  1  0  0  0  0
 16 24  1  1  0  0  0
 17 23  1  0  0  0  0
 22 25  1  6  0  0  0
 22 26  1  0  0  0  0
 23 37  1  0  0  0  0
 23 38  1  0  0  0  0
 24 29  1  0  0  0  0
 25 28  1  0  0  0  0
 26 30  1  0  0  0  0
 27 30  1  0  0  0  0
 27 32  1  6  0  0  0
 28 35  2  0  0  0  0
 28 36  1  0  0  0  0
 32 33  1  0  0  0  0
 33 41  2  0  0  0  0
 33 42  1  0  0  0  0
 35 44  1  0  0  0  0
 36 45  2  0  0  0  0
 39 47  1  0  0  0  0
 40 48  1  0  0  0  0
 41 50  1  0  0  0  0
 42 51  2  0  0  0  0
 43 46  1  0  0  0  0
 43 52  2  0  0  0  0
 44 49  2  0  0  0  0
 45 49  1  0  0  0  0
 50 53  2  0  0  0  0
 51 53  1  0  0  0  0
M  END
> <PUBCHEM_COMPOUND_ID_TYPE>
0

> <PUBCHEM_TOTAL_CHARGE>
0

> <PUBCHEM_SUBSTANCE_ID>
160697744

> <PUBCHEM_SUBSTANCE_VERSION>
5

> <PUBCHEM_EXT_DATASOURCE_NAME>
ChEMBL

> <PUBCHEM_EXT_DATASOURCE_REGID>
CHEMBL2095208

> <PUBCHEM_SUBSTANCE_SYNONYM>
CHEBI:72291
CHEMBL2095208
Cobicistat

> <PUBCHEM_XREF_EXT_ID>
CHEMBL2095208

> <PUBCHEM_EXT_DATASOURCE_URL>
https://www.ebi.ac.uk/chembldb

> <PUBCHEM_EXT_SUBSTANCE_URL>
https://www.ebi.ac.uk/chembldb/index.php/compound/inspect/CHEMBL2095208

> <PUBCHEM_CID_ASSOCIATIONS>
25151504  1

> <PUBCHEM_COORDINATE_TYPE>
1
3

> <PUBCHEM_BONDANNOTATIONS>
16  24  5
22  25  6
27  32  6

$$$$
160723730
  -OEChem-04041605452D

  0  0  0     0  0  0  0  0  0999 V2000
M  END
> <PUBCHEM_SUBSTANCE_ID>
160723730

> <PUBCHEM_SUBSTANCE_VERSION>
4

> <PUBCHEM_EXT_DATASOURCE_NAME>
1019

> <PUBCHEM_EXT_DATASOURCE_REGID>
s194374

> <PUBCHEM_SUBSTANCE_COMMENT>
Sense siRNA Sequence: GGACAGUGCUGCCCUUUGAtt
Overhang features for sense: 20:21
Antisense siRNA Sequence: UCAAAGGGCAGCACUGUCCtg
Overhang features for antisene: 20:21
Antisense, no overhangs: UCAAAGGGCAGCACUGUCC
Wet Lab Success: No
Life Technologies
Applied Biosystems
Ambion

> <PUBCHEM_SUBSTANCE_SYNONYM>
CYP11B1
NM_000497
cytochrome P450, family 11, subfamily B, polypeptide 1
s194374

> <PUBCHEM_XREF_EXT_ID>
s194374

> <PUBCHEM_NCBI_GENE_ID>
1584

> <PUBCHEM_NCBI_PROBE_ID>
16728722

> <PUBCHEM_EXT_DATASOURCE_URL>
http://www.invitrogen.com/site/us/en/home/Products-and-Services/Applications/rnai/Synthetic-RNAi-Analysis/Ambion-Silencer-Select-siRNAs.html

> <PUBCHEM_EXT_SUBSTANCE_URL>
http://bioinfo.invitrogen.com/genome-database/details/sirna/s194374

$$$$
160751220
  -OEChem-04041605452D

  0  0  0     0  0  0  0  0  0999 V2000
M  END
> <PUBCHEM_SUBSTANCE_ID>
160751220

> <PUBCHEM_SUBSTANCE_VERSION>
4

> <PUBCHEM_EXT_DATASOURCE_NAME>
1019

> <PUBCHEM_EXT_DATASOURCE_REGID>
s3802

> <PUBCHEM_SUBSTANCE_COMMENT>
Sense siRNA Sequence: CCACAGGAGAAGAUUGUCAtt
Overhang features for sense: 20:21
Antisense siRNA Sequence: UGACAAUCUUCUCCUGUGGga
Overhang features for antisene: 20:21
Antisense, no overhangs: UGACAAUCUUCUCCUGUGG
Wet Lab Success: No
Life Technologies
Applied Biosystems
Ambion

> <PUBCHEM_SUBSTANCE_SYNONYM>
CYP1A2
NM_000761
cytochrome P450, family 1, subfamily A, polypeptide 2
s3802

> <PUBCHEM_XREF_EXT_ID>
s3802

> <PUBCHEM_NCBI_GENE_ID>
1544

> <PUBCHEM_NCBI_PROBE_ID>
16757338

> <PUBCHEM_EXT_DATASOURCE_URL>
http://www.invitrogen.com/site/us/en/home/Products-and-Services/Applications/rnai/Synthetic-RNAi-Analysis/Ambion-Silencer-Select-siRNAs.html

> <PUBCHEM_EXT_SUBSTANCE_URL>
http://bioinfo.invitrogen.com/genome-database/details/sirna/s3802

$$$$
160751230
  -OEChem-04041605452D

  0  0  0     0  0  0  0  0  0999 V2000
M  END
> <PUBCHEM_SUBSTANCE_ID>
160751230

> <PUBCHEM_SUBSTANCE_VERSION>
4

> <PUBCHEM_EXT_DATASOURCE_NAME>
1019

> <PUBCHEM_EXT_DATASOURCE_REGID>
s3803

> <PUBCHEM_SUBSTANCE_COMMENT>
Sense siRNA Sequence: GCCUCGUGAAGAACACUCAtt
Overhang features for sense: 20:21
Antisense siRNA Sequence: UGAGUGUUCUUCACGAGGCtg
Overhang features for antisene: 20:21
Antisense, no overhangs: UGAGUGUUCUUCACGAGGC
Wet Lab Success: No
Life Technologies
Applied Biosystems
Ambion

> <PUBCHEM_SUBSTANCE_SYNONYM>
CYP1A2
NM_000761
cytochrome P450, family 1, subfamily A, polypeptide 2
s3803

> <PUBCHEM_XREF_EXT_ID>
s3803

> <PUBCHEM_NCBI_GENE_ID>
1544

> <PUBCHEM_NCBI_PROBE_ID>
16757348

> <PUBCHEM_EXT_DATASOURCE_URL>
http://www.invitrogen.com/site/us/en/home/Products-and-Services/Applications/rnai/Synthetic-RNAi-Analysis/Ambion-Silencer-Select-siRNAs.html

> <PUBCHEM_EXT_SUBSTANCE_URL>
http://bioinfo.invitrogen.com/genome-database/details/sirna/s3803

$$$$
160751241
  -OEChem-04041605452D

  0  0  0     0  0  0  0  0  0999 V2000
M  END
> <PUBCHEM_SUBSTANCE_ID>
160751241

> <PUBCHEM_SUBSTANCE_VERSION>
4

> <PUBCHEM_EXT_DATASOURCE_NAME>
1019

> <PUBCHEM_EXT_DATASOURCE_REGID>
s3804

> <PUBCHEM_SUBSTANCE_COMMENT>
Sense siRNA Sequence: GGACUUUGACAAGAACAGUtt
Overhang features for sense: 20:21
Antisense siRNA Sequence: ACUGUUCUUGUCAAAGUCCtg
Overhang features for antisene: 20:21
Antisense, no overhangs: ACUGUUCUUGUCAAAGUCC
Wet Lab Success: No
Life Technologies
Applied Biosystems
Ambion

> <PUBCHEM_SUBSTANCE_SYNONYM>
CYP1A2
NM_000761
cytochrome P450, family 1, subfamily A, polypeptide 2
s3804

> <PUBCHEM_XREF_EXT_ID>
s3804

> <PUBCHEM_NCBI_GENE_ID>
1544

> <PUBCHEM_NCBI_PROBE_ID>
16757359

> <PUBCHEM_EXT_DATASOURCE_URL>
http://www.invitrogen.com/site/us/en/home/Products-and-Services/Applications/rnai/Synthetic-RNAi-Analysis/Ambion-Silencer-Select-siRNAs.html

> <PUBCHEM_EXT_SUBSTANCE_URL>
http://bioinfo.invitrogen.com/genome-database/details/sirna/s3804

$$$$
160751252
  -OEChem-04041605452D

  0  0  0     0  0  0  0  0  0999 V2000
M  END
> <PUBCHEM_SUBSTANCE_ID>
160751252

> <PUBCHEM_SUBSTANCE_VERSION>
4

> <PUBCHEM_EXT_DATASOURCE_NAME>
1019

> <PUBCHEM_EXT_DATASOURCE_REGID>
s3805

> <PUBCHEM_SUBSTANCE_COMMENT>
Sense siRNA Sequence: CCCAAGUCAUUUAAAGUCAtt
Overhang features for sense: 20:21
Antisense siRNA Sequence: UGACUUUAAAUGACUUGGGtt
Overhang features for antisene: 20:21
Antisense, no overhangs: UGACUUUAAAUGACUUGGG
Wet Lab Success: No
Life Technologies
Applied Biosystems
Ambion

> <PUBCHEM_SUBSTANCE_SYNONYM>
CYP1B1
NM_000104
cytochrome P450, family 1, subfamily B, polypeptide 1
s3805

> <PUBCHEM_XREF_EXT_ID>
s3805

> <PUBCHEM_NCBI_GENE_ID>
1545

> <PUBCHEM_NCBI_PROBE_ID>
16757370

> <PUBCHEM_EXT_DATASOURCE_URL>
http://www.invitrogen.com/site/us/en/home/Products-and-Services/Applications/rnai/Synthetic-RNAi-Analysis/Ambion-Silencer-Select-siRNAs.html

> <PUBCHEM_EXT_SUBSTANCE_URL>
http://bioinfo.invitrogen.com/genome-database/details/sirna/s3805

$$$$
160751262
  -OEChem-04041605452D

  0  0  0     0  0  0  0  0  0999 V2000
M  END
> <PUBCHEM_SUBSTANCE_ID>
160751262

> <PUBCHEM_SUBSTANCE_VERSION>
4

> <PUBCHEM_EXT_DATASOURCE_NAME>
1019

> <PUBCHEM_EXT_DATASOURCE_REGID>
s3806

> <PUBCHEM_SUBSTANCE_COMMENT>
Sense siRNA Sequence: GCCUAACCCGGAGAACUUUtt
Overhang features for sense: 20:21
Antisense siRNA Sequence: AAAGUUCUCCGGGUUAGGCca
Overhang features for antisene: 20:21
Antisense, no overhangs: AAAGUUCUCCGGGUUAGGC
Wet Lab Success: No
Life Technologies
Applied Biosystems
Ambion

> <PUBCHEM_SUBSTANCE_SYNONYM>
CYP1B1
NM_000104
cytochrome P450, family 1, subfamily B, polypeptide 1
s3806

> <PUBCHEM_XREF_EXT_ID>
s3806

> <PUBCHEM_NCBI_GENE_ID>
1545

> <PUBCHEM_NCBI_PROBE_ID>
16757380

> <PUBCHEM_EXT_DATASOURCE_URL>
http://www.invitrogen.com/site/us/en/home/Products-and-Services/Applications/rnai/Synthetic-RNAi-Analysis/Ambion-Silencer-Select-siRNAs.html

> <PUBCHEM_EXT_SUBSTANCE_URL>
http://bioinfo.invitrogen.com/genome-database/details/sirna/s3806

$$$$
160751271
  -OEChem-04041605452D

  0  0  0     0  0  0  0  0  0999 V2000
M  END
> <PUBCHEM_SUBSTANCE_ID>
160751271

> <PUBCHEM_SUBSTANCE_VERSION>
4

> <PUBCHEM_EXT_DATASOURCE_NAME>
1019

> <PUBCHEM_EXT_DATASOURCE_REGID>
s3807

> <PUBCHEM_SUBSTANCE_COMMENT>
Sense siRNA Sequence: CAGUUAUGGUCUAACCAUUtt
Overhang features for sense: 20:21
Antisense siRNA Sequence: AAUGGUUAGACCAUAACUGaa
Overhang features for antisene: 20:21
Antisense, no overhangs: AAUGGUUAGACCAUAACUG
Wet Lab Success: No
Life Technologies
Applied Biosystems
Ambion

> <PUBCHEM_SUBSTANCE_SYNONYM>
CYP1B1
NM_000104
cytochrome P450, family 1, subfamily B, polypeptide 1
s3807

> <PUBCHEM_XREF_EXT_ID>
s3807

> <PUBCHEM_NCBI_GENE_ID>
1545

> <PUBCHEM_NCBI_PROBE_ID>
16757389

> <PUBCHEM_EXT_DATASOURCE_URL>
http://www.invitrogen.com/site/us/en/home/Products-and-Services/Applications/rnai/Synthetic-RNAi-Analysis/Ambion-Silencer-Select-siRNAs.html

> <PUBCHEM_EXT_SUBSTANCE_URL>
http://bioinfo.invitrogen.com/genome-database/details/sirna/s3807

$$$$
160751282
  -OEChem-04041605452D

  0  0  0     0  0  0  0  0  0999 V2000
M  END
> <PUBCHEM_SUBSTANCE_ID>
160751282

> <PUBCHEM_SUBSTANCE_VERSION>
4

> <PUBCHEM_EXT_DATASOURCE_NAME>
1019

> <PUBCHEM_EXT_DATASOURCE_REGID>
s3808

> <PUBCHEM_SUBSTANCE_COMMENT>
Sense siRNA Sequence: CUUUGACUAUAAGGACAAAtt
Overhang features for sense: 20:21
Antisense siRNA Sequence: UUUGUCCUUAUAGUCAAAGcg
Overhang features for antisene: 20:21
Antisense, no overhangs: UUUGUCCUUAUAGUCAAAG
Wet Lab Success: No
Life Technologies
Applied Biosystems
Ambion

> <PUBCHEM_SUBSTANCE_SYNONYM>
CYP2A6
NM_000762
cytochrome P450, family 2, subfamily A, polypeptide 6
s3808

> <PUBCHEM_XREF_EXT_ID>
s3808

> <PUBCHEM_NCBI_GENE_ID>
1548

> <PUBCHEM_NCBI_PROBE_ID>
16757400

> <PUBCHEM_EXT_DATASOURCE_URL>
http://www.invitrogen.com/site/us/en/home/Products-and-Services/Applications/rnai/Synthetic-RNAi-Analysis/Ambion-Silencer-Select-siRNAs.html

> <PUBCHEM_EXT_SUBSTANCE_URL>
http://bioinfo.invitrogen.com/genome-database/details/sirna/s3808

$$$$
160751293
  -OEChem-04041605452D

  0  0  0     0  0  0  0  0  0999 V2000
M  END
> <PUBCHEM_SUBSTANCE_ID>
160751293

> <PUBCHEM_SUBSTANCE_VERSION>
4

> <PUBCHEM_EXT_DATASOURCE_NAME>
1019

> <PUBCHEM_EXT_DATASOURCE_REGID>
s3809

> <PUBCHEM_SUBSTANCE_COMMENT>
Sense siRNA Sequence: CUGUCACUGUUGCGCAUGAtt
Overhang features for sense: 20:21
Antisense siRNA Sequence: UCAUGCGCAACAGUGACAGga
Overhang features for antisene: 20:21
Antisense, no overhangs: UCAUGCGCAACAGUGACAG
Wet Lab Success: No
Life Technologies
Applied Biosystems
Ambion

> <PUBCHEM_SUBSTANCE_SYNONYM>
CYP2A6
NM_000762
cytochrome P450, family 2, subfamily A, polypeptide 6
s3809

> <PUBCHEM_XREF_EXT_ID>
s3809

> <PUBCHEM_NCBI_GENE_ID>
1548

> <PUBCHEM_NCBI_PROBE_ID>
16757411

> <PUBCHEM_EXT_DATASOURCE_URL>
http://www.invitrogen.com/site/us/en/home/Products-and-Services/Applications/rnai/Synthetic-RNAi-Analysis/Ambion-Silencer-Select-siRNAs.html

> <PUBCHEM_EXT_SUBSTANCE_URL>
http://bioinfo.invitrogen.com/genome-database/details/sirna/s3809

$$$$
160751305
  -OEChem-04041605452D

  0  0  0     0  0  0  0  0  0999 V2000
M  END
> <PUBCHEM_SUBSTANCE_ID>
160751305

> <PUBCHEM_SUBSTANCE_VERSION>
4

> <PUBCHEM_EXT_DATASOURCE_NAME>
1019

> <PUBCHEM_EXT_DATASOURCE_REGID>
s3810

> <PUBCHEM_SUBSTANCE_COMMENT>
Sense siRNA Sequence: CCCUCAUGAAGAUCAGUGAtt
Overhang features for sense: 20:21
Antisense siRNA Sequence: UCACUGAUCUUCAUGAGGGag
Overhang features for antisene: 20:21
Antisense, no overhangs: UCACUGAUCUUCAUGAGGG
Wet Lab Success: No
Life Technologies
Applied Biosystems
Ambion

> <PUBCHEM_SUBSTANCE_SYNONYM>
CYP2A6
NM_000762
cytochrome P450, family 2, subfamily A, polypeptide 6
s3810

> <PUBCHEM_XREF_EXT_ID>
s3810

> <PUBCHEM_NCBI_GENE_ID>
1548

> <PUBCHEM_NCBI_PROBE_ID>
16757423

> <PUBCHEM_EXT_DATASOURCE_URL>
http://www.invitrogen.com/site/us/en/home/Products-and-Services/Applications/rnai/Synthetic-RNAi-Analysis/Ambion-Silencer-Select-siRNAs.html

> <PUBCHEM_EXT_SUBSTANCE_URL>
http://bioinfo.invitrogen.com/genome-database/details/sirna/s3810

$$$$
160751397
  -OEChem-04041605452D

  0  0  0     0  0  0  0  0  0999 V2000
M  END
> <PUBCHEM_SUBSTANCE_ID>
160751397

> <PUBCHEM_SUBSTANCE_VERSION>
4

> <PUBCHEM_EXT_DATASOURCE_NAME>
1019

> <PUBCHEM_EXT_DATASOURCE_REGID>
s3819

> <PUBCHEM_SUBSTANCE_COMMENT>
Sense siRNA Sequence: GCGAUUCUCUGUGACCACUtt
Overhang features for sense: 20:21
Antisense siRNA Sequence: AGUGGUCACAGAGAAUCGCcg
Overhang features for antisene: 20:21
Antisense, no overhangs: AGUGGUCACAGAGAAUCGC
Wet Lab Success: No
Life Technologies
Applied Biosystems
Ambion

> <PUBCHEM_SUBSTANCE_SYNONYM>
CYP2B6
NM_000767
cytochrome P450, family 2, subfamily B, polypeptide 6
s3819

> <PUBCHEM_XREF_EXT_ID>
s3819

> <PUBCHEM_NCBI_GENE_ID>
1555

> <PUBCHEM_NCBI_PROBE_ID>
16729927

> <PUBCHEM_EXT_DATASOURCE_URL>
http://www.invitrogen.com/site/us/en/home/Products-and-Services/Applications/rnai/Synthetic-RNAi-Analysis/Ambion-Silencer-Select-siRNAs.html

> <PUBCHEM_EXT_SUBSTANCE_URL>
http://bioinfo.invitrogen.com/genome-database/details/sirna/s3819

$$$$
160751408
  -OEChem-04041605452D

  0  0  0     0  0  0  0  0  0999 V2000
M  END
> <PUBCHEM_SUBSTANCE_ID>
160751408

> <PUBCHEM_SUBSTANCE_VERSION>
4

> <PUBCHEM_EXT_DATASOURCE_NAME>
1019

> <PUBCHEM_EXT_DATASOURCE_REGID>
s3820

> <PUBCHEM_SUBSTANCE_COMMENT>
Sense siRNA Sequence: CAAGAUCAAGAGUUCCUGAtt
Overhang features for sense: 20:21
Antisense siRNA Sequence: UCAGGAACUCUUGAUCUUGgt
Overhang features for antisene: 20:21
Antisense, no overhangs: UCAGGAACUCUUGAUCUUG
Wet Lab Success: No
Life Technologies
Applied Biosystems
Ambion

> <PUBCHEM_SUBSTANCE_SYNONYM>
CYP2B6
NM_000767
cytochrome P450, family 2, subfamily B, polypeptide 6
s3820

> <PUBCHEM_XREF_EXT_ID>
s3820

> <PUBCHEM_NCBI_GENE_ID>
1555

> <PUBCHEM_NCBI_PROBE_ID>
16729938

> <PUBCHEM_EXT_DATASOURCE_URL>
http://www.invitrogen.com/site/us/en/home/Products-and-Services/Applications/rnai/Synthetic-RNAi-Analysis/Ambion-Silencer-Select-siRNAs.html

> <PUBCHEM_EXT_SUBSTANCE_URL>
http://bioinfo.invitrogen.com/genome-database/details/sirna/s3820

$$$$
160751419
  -OEChem-04041605452D

  0  0  0     0  0  0  0  0  0999 V2000
M  END
> <PUBCHEM_SUBSTANCE_ID>
160751419

> <PUBCHEM_SUBSTANCE_VERSION>
4

> <PUBCHEM_EXT_DATASOURCE_NAME>
1019

> <PUBCHEM_EXT_DATASOURCE_REGID>
s3821

> <PUBCHEM_SUBSTANCE_COMMENT>
Sense siRNA Sequence: CGUGCGGAAUUGUUCCUCUtt
Overhang features for sense: 20:21
Antisense siRNA Sequence: AGAGGAACAAUUCCGCACGgg
Overhang features for antisene: 20:21
Antisense, no overhangs: AGAGGAACAAUUCCGCACG
Wet Lab Success: No
Life Technologies
Applied Biosystems
Ambion

> <PUBCHEM_SUBSTANCE_SYNONYM>
CYP2B6
NM_000767
cytochrome P450, family 2, subfamily B, polypeptide 6
s3821

> <PUBCHEM_XREF_EXT_ID>
s3821

> <PUBCHEM_NCBI_GENE_ID>
1555

> <PUBCHEM_NCBI_PROBE_ID>
16729949

> <PUBCHEM_EXT_DATASOURCE_URL>
http://www.invitrogen.com/site/us/en/home/Products-and-Services/Applications/rnai/Synthetic-RNAi-Analysis/Ambion-Silencer-Select-siRNAs.html

> <PUBCHEM_EXT_SUBSTANCE_URL>
http://bioinfo.invitrogen.com/genome-database/details/sirna/s3821

$$$$
160751461
  -OEChem-04041605452D

  0  0  0     0  0  0  0  0  0999 V2000
M  END
> <PUBCHEM_SUBSTANCE_ID>
160751461

> <PUBCHEM_SUBSTANCE_VERSION>
4

> <PUBCHEM_EXT_DATASOURCE_NAME>
1019

> <PUBCHEM_EXT_DATASOURCE_REGID>
s3825

> <PUBCHEM_SUBSTANCE_COMMENT>
Sense siRNA Sequence: GGACAACCAAAAGUCAGAAtt
Overhang features for sense: 20:21
Antisense siRNA Sequence: UUCUGACUUUUGGUUGUCCtt
Overhang features for antisene: 20:21
Antisense, no overhangs: UUCUGACUUUUGGUUGUCC
Wet Lab Success: No
Life Technologies
Applied Biosystems
Ambion

> <PUBCHEM_SUBSTANCE_SYNONYM>
CYP2C8
NM_000770
cytochrome P450, family 2, subfamily C, polypeptide 8
s3825

> <PUBCHEM_XREF_EXT_ID>
s3825

> <PUBCHEM_NCBI_GENE_ID>
1558

> <PUBCHEM_NCBI_PROBE_ID>
16729991

> <PUBCHEM_EXT_DATASOURCE_URL>
http://www.invitrogen.com/site/us/en/home/Products-and-Services/Applications/rnai/Synthetic-RNAi-Analysis/Ambion-Silencer-Select-siRNAs.html

> <PUBCHEM_EXT_SUBSTANCE_URL>
http://bioinfo.invitrogen.com/genome-database/details/sirna/s3825

$$$$
160751472
  -OEChem-04041605452D

  0  0  0     0  0  0  0  0  0999 V2000
M  END
> <PUBCHEM_SUBSTANCE_ID>
160751472

> <PUBCHEM_SUBSTANCE_VERSION>
4

> <PUBCHEM_EXT_DATASOURCE_NAME>
1019

> <PUBCHEM_EXT_DATASOURCE_REGID>
s3826

> <PUBCHEM_SUBSTANCE_COMMENT>
Sense siRNA Sequence: CAGUGACCACUGAUACUAAtt
Overhang features for sense: 20:21
Antisense siRNA Sequence: UUAGUAUCAGUGGUCACUGca
Overhang features for antisene: 20:21
Antisense, no overhangs: UUAGUAUCAGUGGUCACUG
Wet Lab Success: No
Life Technologies
Applied Biosystems
Ambion

> <PUBCHEM_SUBSTANCE_SYNONYM>
CYP2C8
NM_000770
cytochrome P450, family 2, subfamily C, polypeptide 8
s3826

> <PUBCHEM_XREF_EXT_ID>
s3826

> <PUBCHEM_NCBI_GENE_ID>
1558

> <PUBCHEM_NCBI_PROBE_ID>
16730002

> <PUBCHEM_EXT_DATASOURCE_URL>
http://www.invitrogen.com/site/us/en/home/Products-and-Services/Applications/rnai/Synthetic-RNAi-Analysis/Ambion-Silencer-Select-siRNAs.html

> <PUBCHEM_EXT_SUBSTANCE_URL>
http://bioinfo.invitrogen.com/genome-database/details/sirna/s3826

$$$$
160751483
  -OEChem-04041605452D

  0  0  0     0  0  0  0  0  0999 V2000
M  END
> <PUBCHEM_SUBSTANCE_ID>
160751483

> <PUBCHEM_SUBSTANCE_VERSION>
4

> <PUBCHEM_EXT_DATASOURCE_NAME>
1019

> <PUBCHEM_EXT_DATASOURCE_REGID>
s3827

> <PUBCHEM_SUBSTANCE_COMMENT>
Sense siRNA Sequence: GCACUGUAGCUGAUCUAUUtt
Overhang features for sense: 20:21
Antisense siRNA Sequence: AAUAGAUCAGCUACAGUGCca
Overhang features for antisene: 20:21
Antisense, no overhangs: AAUAGAUCAGCUACAGUGC
Wet Lab Success: No
Life Technologies
Applied Biosystems
Ambion

> <PUBCHEM_SUBSTANCE_SYNONYM>
CYP2C8
NM_000770
cytochrome P450, family 2, subfamily C, polypeptide 8
s3827

> <PUBCHEM_XREF_EXT_ID>
s3827

> <PUBCHEM_NCBI_GENE_ID>
1558

> <PUBCHEM_NCBI_PROBE_ID>
16730013

> <PUBCHEM_EXT_DATASOURCE_URL>
http://www.invitrogen.com/site/us/en/home/Products-and-Services/Applications/rnai/Synthetic-RNAi-Analysis/Ambion-Silencer-Select-siRNAs.html

> <PUBCHEM_EXT_SUBSTANCE_URL>
http://bioinfo.invitrogen.com/genome-database/details/sirna/s3827

$$$$
160751554
  -OEChem-04041605452D

  0  0  0     0  0  0  0  0  0999 V2000
M  END
> <PUBCHEM_SUBSTANCE_ID>
160751554

> <PUBCHEM_SUBSTANCE_VERSION>
4

> <PUBCHEM_EXT_DATASOURCE_NAME>
1019

> <PUBCHEM_EXT_DATASOURCE_REGID>
s3834

> <PUBCHEM_SUBSTANCE_COMMENT>
Sense siRNA Sequence: AGGUCCUACGCUUCCAAAAtt
Overhang features for sense: 20:21
Antisense siRNA Sequence: UUUUGGAAGCGUAGGACCUtg
Overhang features for antisene: 20:21
Antisense, no overhangs: UUUUGGAAGCGUAGGACCU
Wet Lab Success: No
Life Technologies
Applied Biosystems
Ambion

> <PUBCHEM_SUBSTANCE_SYNONYM>
CYP2D6
NM_000106
cytochrome P450, family 2, subfamily D, polypeptide 6
s3834

> <PUBCHEM_XREF_EXT_ID>
s3834

> <PUBCHEM_NCBI_GENE_ID>
1565

> <PUBCHEM_NCBI_PROBE_ID>
16757481

> <PUBCHEM_EXT_DATASOURCE_URL>
http://www.invitrogen.com/site/us/en/home/Products-and-Services/Applications/rnai/Synthetic-RNAi-Analysis/Ambion-Silencer-Select-siRNAs.html

> <PUBCHEM_EXT_SUBSTANCE_URL>
http://bioinfo.invitrogen.com/genome-database/details/sirna/s3834

$$$$
160751564
  -OEChem-04041605452D

  0  0  0     0  0  0  0  0  0999 V2000
M  END
> <PUBCHEM_SUBSTANCE_ID>
160751564

> <PUBCHEM_SUBSTANCE_VERSION>
4

> <PUBCHEM_EXT_DATASOURCE_NAME>
1019

> <PUBCHEM_EXT_DATASOURCE_REGID>
s3835

> <PUBCHEM_SUBSTANCE_COMMENT>
Sense siRNA Sequence: GAACGACACUCAUCACCAAtt
Overhang features for sense: 20:21
Antisense siRNA Sequence: UUGGUGAUGAGUGUCGUUCcc
Overhang features for antisene: 20:21
Antisense, no overhangs: UUGGUGAUGAGUGUCGUUC
Wet Lab Success: No
Life Technologies
Applied Biosystems
Ambion

> <PUBCHEM_SUBSTANCE_SYNONYM>
CYP2D6
NM_000106
cytochrome P450, family 2, subfamily D, polypeptide 6
s3835

> <PUBCHEM_XREF_EXT_ID>
s3835

> <PUBCHEM_NCBI_GENE_ID>
1565

> <PUBCHEM_NCBI_PROBE_ID>
16757491

> <PUBCHEM_EXT_DATASOURCE_URL>
http://www.invitrogen.com/site/us/en/home/Products-and-Services/Applications/rnai/Synthetic-RNAi-Analysis/Ambion-Silencer-Select-siRNAs.html

> <PUBCHEM_EXT_SUBSTANCE_URL>
http://bioinfo.invitrogen.com/genome-database/details/sirna/s3835

$$$$
160751574
  -OEChem-04041605452D

  0  0  0     0  0  0  0  0  0999 V2000
M  END
> <PUBCHEM_SUBSTANCE_ID>
160751574

> <PUBCHEM_SUBSTANCE_VERSION>
4

> <PUBCHEM_EXT_DATASOURCE_NAME>
1019

> <PUBCHEM_EXT_DATASOURCE_REGID>
s3836

> <PUBCHEM_SUBSTANCE_COMMENT>
Sense siRNA Sequence: CCACUGCCGUGAUUCAUGAtt
Overhang features for sense: 20:21
Antisense siRNA Sequence: UCAUGAAUCACGGCAGUGGtg
Overhang features for antisene: 20:21
Antisense, no overhangs: UCAUGAAUCACGGCAGUGG
Wet Lab Success: No
Life Technologies
Applied Biosystems
Ambion

> <PUBCHEM_SUBSTANCE_SYNONYM>
CYP2D6
NM_000106
cytochrome P450, family 2, subfamily D, polypeptide 6
s3836

> <PUBCHEM_XREF_EXT_ID>
s3836

> <PUBCHEM_NCBI_GENE_ID>
1565

> <PUBCHEM_NCBI_PROBE_ID>
16757501

> <PUBCHEM_EXT_DATASOURCE_URL>
http://www.invitrogen.com/site/us/en/home/Products-and-Services/Applications/rnai/Synthetic-RNAi-Analysis/Ambion-Silencer-Select-siRNAs.html

> <PUBCHEM_EXT_SUBSTANCE_URL>
http://bioinfo.invitrogen.com/genome-database/details/sirna/s3836

$$$$
160751585
  -OEChem-04041605452D

  0  0  0     0  0  0  0  0  0999 V2000
M  END
> <PUBCHEM_SUBSTANCE_ID>
160751585

> <PUBCHEM_SUBSTANCE_VERSION>
4

> <PUBCHEM_EXT_DATASOURCE_NAME>
1019

> <PUBCHEM_EXT_DATASOURCE_REGID>
s3837

> <PUBCHEM_SUBSTANCE_COMMENT>
Sense siRNA Sequence: GCCCUAUACAUAUUGGGUUtt
Overhang features for sense: 20:21
Antisense siRNA Sequence: AACCCAAUAUGUAUAGGGCtg
Overhang features for antisene: 20:21
Antisense, no overhangs: AACCCAAUAUGUAUAGGGC
Wet Lab Success: No
Life Technologies
Applied Biosystems
Ambion

> <PUBCHEM_SUBSTANCE_SYNONYM>
CYP2E1
NM_000773
cytochrome P450, family 2, subfamily E, polypeptide 1
s3837

> <PUBCHEM_XREF_EXT_ID>
s3837

> <PUBCHEM_NCBI_GENE_ID>
1571

> <PUBCHEM_NCBI_PROBE_ID>
16757512

> <PUBCHEM_EXT_DATASOURCE_URL>
http://www.invitrogen.com/site/us/en/home/Products-and-Services/Applications/rnai/Synthetic-RNAi-Analysis/Ambion-Silencer-Select-siRNAs.html

> <PUBCHEM_EXT_SUBSTANCE_URL>
http://bioinfo.invitrogen.com/genome-database/details/sirna/s3837

$$$$
160751595
  -OEChem-04041605452D

  0  0  0     0  0  0  0  0  0999 V2000
M  END
> <PUBCHEM_SUBSTANCE_ID>
160751595

> <PUBCHEM_SUBSTANCE_VERSION>
4

> <PUBCHEM_EXT_DATASOURCE_NAME>
1019

> <PUBCHEM_EXT_DATASOURCE_REGID>
s3838

> <PUBCHEM_SUBSTANCE_COMMENT>
Sense siRNA Sequence: CCAGCACAACUCUGAGAUAtt
Overhang features for sense: 20:21
Antisense siRNA Sequence: UAUCUCAGAGUUGUGCUGGtg
Overhang features for antisene: 20:21
Antisense, no overhangs: UAUCUCAGAGUUGUGCUGG
Wet Lab Success: No
Life Technologies
Applied Biosystems
Ambion

> <PUBCHEM_SUBSTANCE_SYNONYM>
CYP2E1
NM_000773
cytochrome P450, family 2, subfamily E, polypeptide 1
s3838

> <PUBCHEM_XREF_EXT_ID>
s3838

> <PUBCHEM_NCBI_GENE_ID>
1571

> <PUBCHEM_NCBI_PROBE_ID>
16757522

> <PUBCHEM_EXT_DATASOURCE_URL>
http://www.invitrogen.com/site/us/en/home/Products-and-Services/Applications/rnai/Synthetic-RNAi-Analysis/Ambion-Silencer-Select-siRNAs.html

> <PUBCHEM_EXT_SUBSTANCE_URL>
http://bioinfo.invitrogen.com/genome-database/details/sirna/s3838

$$$$
160751606
  -OEChem-04041605452D

  0  0  0     0  0  0  0  0  0999 V2000
M  END
> <PUBCHEM_SUBSTANCE_ID>
160751606

> <PUBCHEM_SUBSTANCE_VERSION>
4

> <PUBCHEM_EXT_DATASOURCE_NAME>
1019

> <PUBCHEM_EXT_DATASOURCE_REGID>
s3839

> <PUBCHEM_SUBSTANCE_COMMENT>
Sense siRNA Sequence: GAAAGUUCAAGUACAGUGAtt
Overhang features for sense: 20:21
Antisense siRNA Sequence: UCACUGUACUUGAACUUUCca
Overhang features for antisene: 20:21
Antisense, no overhangs: UCACUGUACUUGAACUUUC
Wet Lab Success: No
Life Technologies
Applied Biosystems
Ambion

> <PUBCHEM_SUBSTANCE_SYNONYM>
CYP2E1
NM_000773
cytochrome P450, family 2, subfamily E, polypeptide 1
s3839

> <PUBCHEM_XREF_EXT_ID>
s3839

> <PUBCHEM_NCBI_GENE_ID>
1571

> <PUBCHEM_NCBI_PROBE_ID>
16757533

> <PUBCHEM_EXT_DATASOURCE_URL>
http://www.invitrogen.com/site/us/en/home/Products-and-Services/Applications/rnai/Synthetic-RNAi-Analysis/Ambion-Silencer-Select-siRNAs.html

> <PUBCHEM_EXT_SUBSTANCE_URL>
http://bioinfo.invitrogen.com/genome-database/details/sirna/s3839

$$$$
160751839
  -OEChem-04041605452D

  0  0  0     0  0  0  0  0  0999 V2000
M  END
> <PUBCHEM_SUBSTANCE_ID>
160751839

> <PUBCHEM_SUBSTANCE_VERSION>
4

> <PUBCHEM_EXT_DATASOURCE_NAME>
1019

> <PUBCHEM_EXT_DATASOURCE_REGID>
s3861

> <PUBCHEM_SUBSTANCE_COMMENT>
Sense siRNA Sequence: GCCUGUCCUUUGUAAUGCUtt
Overhang features for sense: 20:21
Antisense siRNA Sequence: AGCAUUACAAAGGACAGGCtg
Overhang features for antisene: 20:21
Antisense, no overhangs: AGCAUUACAAAGGACAGGC
Wet Lab Success: No
Life Technologies
Applied Biosystems
Ambion

> <PUBCHEM_SUBSTANCE_SYNONYM>
CYP8B1
NM_004391
cytochrome P450, family 8, subfamily B, polypeptide 1
s3861

> <PUBCHEM_XREF_EXT_ID>
s3861

> <PUBCHEM_NCBI_GENE_ID>
1582

> <PUBCHEM_NCBI_PROBE_ID>
16735186

> <PUBCHEM_EXT_DATASOURCE_URL>
http://www.invitrogen.com/site/us/en/home/Products-and-Services/Applications/rnai/Synthetic-RNAi-Analysis/Ambion-Silencer-Select-siRNAs.html

> <PUBCHEM_EXT_SUBSTANCE_URL>
http://bioinfo.invitrogen.com/genome-database/details/sirna/s3861

$$$$
160751850
  -OEChem-04041605452D

  0  0  0     0  0  0  0  0  0999 V2000
M  END
> <PUBCHEM_SUBSTANCE_ID>
160751850

> <PUBCHEM_SUBSTANCE_VERSION>
4

> <PUBCHEM_EXT_DATASOURCE_NAME>
1019

> <PUBCHEM_EXT_DATASOURCE_REGID>
s3862

> <PUBCHEM_SUBSTANCE_COMMENT>
Sense siRNA Sequence: GCUUGUUCGGCUACACGAAtt
Overhang features for sense: 20:21
Antisense siRNA Sequence: UUCGUGUAGCCGAACAAGCtc
Overhang features for antisene: 20:21
Antisense, no overhangs: UUCGUGUAGCCGAACAAGC
Wet Lab Success: No
Life Technologies
Applied Biosystems
Ambion

> <PUBCHEM_SUBSTANCE_SYNONYM>
CYP8B1
NM_004391
cytochrome P450, family 8, subfamily B, polypeptide 1
s3862

> <PUBCHEM_XREF_EXT_ID>
s3862

> <PUBCHEM_NCBI_GENE_ID>
1582

> <PUBCHEM_NCBI_PROBE_ID>
16735197

> <PUBCHEM_EXT_DATASOURCE_URL>
http://www.invitrogen.com/site/us/en/home/Products-and-Services/Applications/rnai/Synthetic-RNAi-Analysis/Ambion-Silencer-Select-siRNAs.html

> <PUBCHEM_EXT_SUBSTANCE_URL>
http://bioinfo.invitrogen.com/genome-database/details/sirna/s3862

$$$$
160751861
  -OEChem-04041605452D

  0  0  0     0  0  0  0  0  0999 V2000
M  END
> <PUBCHEM_SUBSTANCE_ID>
160751861

> <PUBCHEM_SUBSTANCE_VERSION>
4

> <PUBCHEM_EXT_DATASOURCE_NAME>
1019

> <PUBCHEM_EXT_DATASOURCE_REGID>
s3863

> <PUBCHEM_SUBSTANCE_COMMENT>
Sense siRNA Sequence: CAUGAAGACUAUACCCUGAtt
Overhang features for sense: 20:21
Antisense siRNA Sequence: UCAGGGUAUAGUCUUCAUGaa
Overhang features for antisene: 20:21
Antisense, no overhangs: UCAGGGUAUAGUCUUCAUG
Wet Lab Success: No
Life Technologies
Applied Biosystems
Ambion

> <PUBCHEM_SUBSTANCE_SYNONYM>
CYP8B1
NM_004391
cytochrome P450, family 8, subfamily B, polypeptide 1
s3863

> <PUBCHEM_XREF_EXT_ID>
s3863

> <PUBCHEM_NCBI_GENE_ID>
1582

> <PUBCHEM_NCBI_PROBE_ID>
16735208

> <PUBCHEM_EXT_DATASOURCE_URL>
http://www.invitrogen.com/site/us/en/home/Products-and-Services/Applications/rnai/Synthetic-RNAi-Analysis/Ambion-Silencer-Select-siRNAs.html

> <PUBCHEM_EXT_SUBSTANCE_URL>
http://bioinfo.invitrogen.com/genome-database/details/sirna/s3863

$$$$
160751871
  -OEChem-04041605452D

  0  0  0     0  0  0  0  0  0999 V2000
M  END
> <PUBCHEM_SUBSTANCE_ID>
160751871

> <PUBCHEM_SUBSTANCE_VERSION>
4

> <PUBCHEM_EXT_DATASOURCE_NAME>
1019

> <PUBCHEM_EXT_DATASOURCE_REGID>
s3864

> <PUBCHEM_SUBSTANCE_COMMENT>
Sense siRNA Sequence: CAUUCAACCUCAUUCUGAUtt
Overhang features for sense: 20:21
Antisense siRNA Sequence: AUCAGAAUGAGGUUGAAUGtg
Overhang features for antisene: 20:21
Antisense, no overhangs: AUCAGAAUGAGGUUGAAUG
Wet Lab Success: No
Life Technologies
Applied Biosystems
Ambion

> <PUBCHEM_SUBSTANCE_SYNONYM>
CYP11A1
NM_000781
cytochrome P450, family 11, subfamily A, polypeptide 1
s3864

> <PUBCHEM_XREF_EXT_ID>
s3864

> <PUBCHEM_NCBI_GENE_ID>
1583

> <PUBCHEM_NCBI_PROBE_ID>
16735218

> <PUBCHEM_EXT_DATASOURCE_URL>
http://www.invitrogen.com/site/us/en/home/Products-and-Services/Applications/rnai/Synthetic-RNAi-Analysis/Ambion-Silencer-Select-siRNAs.html

> <PUBCHEM_EXT_SUBSTANCE_URL>
http://bioinfo.invitrogen.com/genome-database/details/sirna/s3864

$$$$
160751882
  -OEChem-04041605452D

  0  0  0     0  0  0  0  0  0999 V2000
M  END
> <PUBCHEM_SUBSTANCE_ID>
160751882

> <PUBCHEM_SUBSTANCE_VERSION>
4

> <PUBCHEM_EXT_DATASOURCE_NAME>
1019

> <PUBCHEM_EXT_DATASOURCE_REGID>
s3865

> <PUBCHEM_SUBSTANCE_COMMENT>
Sense siRNA Sequence: GUAUUACCAGAGACCCAUAtt
Overhang features for sense: 20:21
Antisense siRNA Sequence: UAUGGGUCUCUGGUAAUACtg
Overhang features for antisene: 20:21
Antisense, no overhangs: UAUGGGUCUCUGGUAAUAC
Wet Lab Success: No
Life Technologies
Applied Biosystems
Ambion

> <PUBCHEM_SUBSTANCE_SYNONYM>
CYP11A1
NM_000781
cytochrome P450, family 11, subfamily A, polypeptide 1
s3865

> <PUBCHEM_XREF_EXT_ID>
s3865

> <PUBCHEM_NCBI_GENE_ID>
1583

> <PUBCHEM_NCBI_PROBE_ID>
16735229

> <PUBCHEM_EXT_DATASOURCE_URL>
http://www.invitrogen.com/site/us/en/home/Products-and-Services/Applications/rnai/Synthetic-RNAi-Analysis/Ambion-Silencer-Select-siRNAs.html

> <PUBCHEM_EXT_SUBSTANCE_URL>
http://bioinfo.invitrogen.com/genome-database/details/sirna/s3865

$$$$
160751890
  -OEChem-04041605452D

  0  0  0     0  0  0  0  0  0999 V2000
M  END
> <PUBCHEM_SUBSTANCE_ID>
160751890

> <PUBCHEM_SUBSTANCE_VERSION>
4

> <PUBCHEM_EXT_DATASOURCE_NAME>
1019

> <PUBCHEM_EXT_DATASOURCE_REGID>
s3866

> <PUBCHEM_SUBSTANCE_COMMENT>
Sense siRNA Sequence: GCAUGGGACGUGAUUUUCAtt
Overhang features for sense: 20:21
Antisense siRNA Sequence: UGAAAAUCACGUCCCAUGCag
Overhang features for antisene: 20:21
Antisense, no overhangs: UGAAAAUCACGUCCCAUGC
Wet Lab Success: No
Life Technologies
Applied Biosystems
Ambion

> <PUBCHEM_SUBSTANCE_SYNONYM>
CYP11A1
NM_000781
cytochrome P450, family 11, subfamily A, polypeptide 1
s3866

> <PUBCHEM_XREF_EXT_ID>
s3866

> <PUBCHEM_NCBI_GENE_ID>
1583

> <PUBCHEM_NCBI_PROBE_ID>
16735237

> <PUBCHEM_EXT_DATASOURCE_URL>
http://www.invitrogen.com/site/us/en/home/Products-and-Services/Applications/rnai/Synthetic-RNAi-Analysis/Ambion-Silencer-Select-siRNAs.html

> <PUBCHEM_EXT_SUBSTANCE_URL>
http://bioinfo.invitrogen.com/genome-database/details/sirna/s3866

$$$$
160751901
  -OEChem-04041605452D

  0  0  0     0  0  0  0  0  0999 V2000
M  END
> <PUBCHEM_SUBSTANCE_ID>
160751901

> <PUBCHEM_SUBSTANCE_VERSION>
4

> <PUBCHEM_EXT_DATASOURCE_NAME>
1019

> <PUBCHEM_EXT_DATASOURCE_REGID>
s3867

> <PUBCHEM_SUBSTANCE_COMMENT>
Sense siRNA Sequence: ACACGACGGUGUUUCCCUUtt
Overhang features for sense: 20:21
Antisense siRNA Sequence: AAGGGAAACACCGUCGUGUcc
Overhang features for antisene: 20:21
Antisense, no overhangs: AAGGGAAACACCGUCGUGU
Wet Lab Success: No
Life Technologies
Applied Biosystems
Ambion

> <PUBCHEM_SUBSTANCE_SYNONYM>
CYP11B1
NM_000497
cytochrome P450, family 11, subfamily B, polypeptide 1
s3867

> <PUBCHEM_XREF_EXT_ID>
s3867

> <PUBCHEM_NCBI_GENE_ID>
1584

> <PUBCHEM_NCBI_PROBE_ID>
16735248

> <PUBCHEM_EXT_DATASOURCE_URL>
http://www.invitrogen.com/site/us/en/home/Products-and-Services/Applications/rnai/Synthetic-RNAi-Analysis/Ambion-Silencer-Select-siRNAs.html

> <PUBCHEM_EXT_SUBSTANCE_URL>
http://bioinfo.invitrogen.com/genome-database/details/sirna/s3867

$$$$
160751911
  -OEChem-04041605452D

  0  0  0     0  0  0  0  0  0999 V2000
M  END
> <PUBCHEM_SUBSTANCE_ID>
160751911

> <PUBCHEM_SUBSTANCE_VERSION>
4

> <PUBCHEM_EXT_DATASOURCE_NAME>
1019

> <PUBCHEM_EXT_DATASOURCE_REGID>
s3868

> <PUBCHEM_SUBSTANCE_COMMENT>
Sense siRNA Sequence: GGACUCAGACGAGUUUUAUtt
Overhang features for sense: 20:21
Antisense siRNA Sequence: AUAAAACUCGUCUGAGUCCtt
Overhang features for antisene: 20:21
Antisense, no overhangs: AUAAAACUCGUCUGAGUCC
Wet Lab Success: No
Life Technologies
Applied Biosystems
Ambion

> <PUBCHEM_SUBSTANCE_SYNONYM>
CYP11B1
NM_000497
cytochrome P450, family 11, subfamily B, polypeptide 1
s3868

> <PUBCHEM_XREF_EXT_ID>
s3868

> <PUBCHEM_NCBI_GENE_ID>
1584

> <PUBCHEM_NCBI_PROBE_ID>
16735258

> <PUBCHEM_EXT_DATASOURCE_URL>
http://www.invitrogen.com/site/us/en/home/Products-and-Services/Applications/rnai/Synthetic-RNAi-Analysis/Ambion-Silencer-Select-siRNAs.html

> <PUBCHEM_EXT_SUBSTANCE_URL>
http://bioinfo.invitrogen.com/genome-database/details/sirna/s3868

$$$$
160751922
  -OEChem-04041605452D

  0  0  0     0  0  0  0  0  0999 V2000
M  END
> <PUBCHEM_SUBSTANCE_ID>
160751922

> <PUBCHEM_SUBSTANCE_VERSION>
4

> <PUBCHEM_EXT_DATASOURCE_NAME>
1019

> <PUBCHEM_EXT_DATASOURCE_REGID>
s3869

> <PUBCHEM_SUBSTANCE_COMMENT>
Sense siRNA Sequence: CCAGUACGGUGACAACUGUtt
Overhang features for sense: 20:21
Antisense siRNA Sequence: ACAGUUGUCACCGUACUGGaa
Overhang features for antisene: 20:21
Antisense, no overhangs: ACAGUUGUCACCGUACUGG
Wet Lab Success: No
Life Technologies
Applied Biosystems
Ambion

> <PUBCHEM_SUBSTANCE_SYNONYM>
CYP11B2
NM_000498
cytochrome P450, family 11, subfamily B, polypeptide 2
s3869

> <PUBCHEM_XREF_EXT_ID>
s3869

> <PUBCHEM_NCBI_GENE_ID>
1585

> <PUBCHEM_NCBI_PROBE_ID>
16735269

> <PUBCHEM_EXT_DATASOURCE_URL>
http://www.invitrogen.com/site/us/en/home/Products-and-Services/Applications/rnai/Synthetic-RNAi-Analysis/Ambion-Silencer-Select-siRNAs.html

> <PUBCHEM_EXT_SUBSTANCE_URL>
http://bioinfo.invitrogen.com/genome-database/details/sirna/s3869

$$$$
160751934
  -OEChem-04041605452D

  0  0  0     0  0  0  0  0  0999 V2000
M  END
> <PUBCHEM_SUBSTANCE_ID>
160751934

> <PUBCHEM_SUBSTANCE_VERSION>
4

> <PUBCHEM_EXT_DATASOURCE_NAME>
1019

> <PUBCHEM_EXT_DATASOURCE_REGID>
s3870

> <PUBCHEM_SUBSTANCE_COMMENT>
Sense siRNA Sequence: GGGACAUUGGUACAGGUUUtt
Overhang features for sense: 20:21
Antisense siRNA Sequence: AAACCUGUACCAAUGUCCCag
Overhang features for antisene: 20:21
Antisense, no overhangs: AAACCUGUACCAAUGUCCC
Wet Lab Success: No
Life Technologies
Applied Biosystems
Ambion

> <PUBCHEM_SUBSTANCE_SYNONYM>
CYP11B2
NM_000498
cytochrome P450, family 11, subfamily B, polypeptide 2
s3870

> <PUBCHEM_XREF_EXT_ID>
s3870

> <PUBCHEM_NCBI_GENE_ID>
1585

> <PUBCHEM_NCBI_PROBE_ID>
16735281

> <PUBCHEM_EXT_DATASOURCE_URL>
http://www.invitrogen.com/site/us/en/home/Products-and-Services/Applications/rnai/Synthetic-RNAi-Analysis/Ambion-Silencer-Select-siRNAs.html

> <PUBCHEM_EXT_SUBSTANCE_URL>
http://bioinfo.invitrogen.com/genome-database/details/sirna/s3870

$$$$
160751944
  -OEChem-04041605452D

  0  0  0     0  0  0  0  0  0999 V2000
M  END
> <PUBCHEM_SUBSTANCE_ID>
160751944

> <PUBCHEM_SUBSTANCE_VERSION>
4

> <PUBCHEM_EXT_DATASOURCE_NAME>
1019

> <PUBCHEM_EXT_DATASOURCE_REGID>
s3871

> <PUBCHEM_SUBSTANCE_COMMENT>
Sense siRNA Sequence: GGACUCAGAUGAGUUUUAUtt
Overhang features for sense: 20:21
Antisense siRNA Sequence: AUAAAACUCAUCUGAGUCCtt
Overhang features for antisene: 20:21
Antisense, no overhangs: AUAAAACUCAUCUGAGUCC
Wet Lab Success: No
Life Technologies
Applied Biosystems
Ambion

> <PUBCHEM_SUBSTANCE_SYNONYM>
CYP11B2
NM_000498
cytochrome P450, family 11, subfamily B, polypeptide 2
s3871

> <PUBCHEM_XREF_EXT_ID>
s3871

> <PUBCHEM_NCBI_GENE_ID>
1585

> <PUBCHEM_NCBI_PROBE_ID>
16735291

> <PUBCHEM_EXT_DATASOURCE_URL>
http://www.invitrogen.com/site/us/en/home/Products-and-Services/Applications/rnai/Synthetic-RNAi-Analysis/Ambion-Silencer-Select-siRNAs.html

> <PUBCHEM_EXT_SUBSTANCE_URL>
http://bioinfo.invitrogen.com/genome-database/details/sirna/s3871

$$$$
160752142
  -OEChem-04041605452D

  0  0  0     0  0  0  0  0  0999 V2000
M  END
> <PUBCHEM_SUBSTANCE_ID>
160752142

> <PUBCHEM_SUBSTANCE_VERSION>
4

> <PUBCHEM_EXT_DATASOURCE_NAME>
1019

> <PUBCHEM_EXT_DATASOURCE_REGID>
s3890

> <PUBCHEM_SUBSTANCE_COMMENT>
Sense siRNA Sequence: UGGGAAAUGUGACAGAGUUtt
Overhang features for sense: 20:21
Antisense siRNA Sequence: AACUCUGUCACAUUUCCCAgg
Overhang features for antisene: 20:21
Antisense, no overhangs: AACUCUGUCACAUUUCCCA
Wet Lab Success: No
Life Technologies
Applied Biosystems
Ambion

> <PUBCHEM_SUBSTANCE_SYNONYM>
CYP27B1
NM_000785
cytochrome P450, family 27, subfamily B, polypeptide 1
s3890

> <PUBCHEM_XREF_EXT_ID>
s3890

> <PUBCHEM_NCBI_GENE_ID>
1594

> <PUBCHEM_NCBI_PROBE_ID>
16757875

> <PUBCHEM_EXT_DATASOURCE_URL>
http://www.invitrogen.com/site/us/en/home/Products-and-Services/Applications/rnai/Synthetic-RNAi-Analysis/Ambion-Silencer-Select-siRNAs.html

> <PUBCHEM_EXT_SUBSTANCE_URL>
http://bioinfo.invitrogen.com/genome-database/details/sirna/s3890

$$$$
160752152
  -OEChem-04041605452D

  0  0  0     0  0  0  0  0  0999 V2000
M  END
> <PUBCHEM_SUBSTANCE_ID>
160752152

> <PUBCHEM_SUBSTANCE_VERSION>
4

> <PUBCHEM_EXT_DATASOURCE_NAME>
1019

> <PUBCHEM_EXT_DATASOURCE_REGID>
s3891

> <PUBCHEM_SUBSTANCE_COMMENT>
Sense siRNA Sequence: ACAUUCAUGUGGGUGACUAtt
Overhang features for sense: 20:21
Antisense siRNA Sequence: UAGUCACCCACAUGAAUGUct
Overhang features for antisene: 20:21
Antisense, no overhangs: UAGUCACCCACAUGAAUGU
Wet Lab Success: No
Life Technologies
Applied Biosystems
Ambion

> <PUBCHEM_SUBSTANCE_SYNONYM>
CYP27B1
NM_000785
cytochrome P450, family 27, subfamily B, polypeptide 1
s3891

> <PUBCHEM_XREF_EXT_ID>
s3891

> <PUBCHEM_NCBI_GENE_ID>
1594

> <PUBCHEM_NCBI_PROBE_ID>
16757885

> <PUBCHEM_EXT_DATASOURCE_URL>
http://www.invitrogen.com/site/us/en/home/Products-and-Services/Applications/rnai/Synthetic-RNAi-Analysis/Ambion-Silencer-Select-siRNAs.html

> <PUBCHEM_EXT_SUBSTANCE_URL>
http://bioinfo.invitrogen.com/genome-database/details/sirna/s3891

$$$$
160752163
  -OEChem-04041605452D

  0  0  0     0  0  0  0  0  0999 V2000
M  END
> <PUBCHEM_SUBSTANCE_ID>
160752163

> <PUBCHEM_SUBSTANCE_VERSION>
4

> <PUBCHEM_EXT_DATASOURCE_NAME>
1019

> <PUBCHEM_EXT_DATASOURCE_REGID>
s3892

> <PUBCHEM_SUBSTANCE_COMMENT>
Sense siRNA Sequence: GGACUGUCCUGGUACCUGAtt
Overhang features for sense: 20:21
Antisense siRNA Sequence: UCAGGUACCAGGACAGUCCgg
Overhang features for antisene: 20:21
Antisense, no overhangs: UCAGGUACCAGGACAGUCC
Wet Lab Success: No
Life Technologies
Applied Biosystems
Ambion

> <PUBCHEM_SUBSTANCE_SYNONYM>
CYP27B1
NM_000785
cytochrome P450, family 27, subfamily B, polypeptide 1
s3892

> <PUBCHEM_XREF_EXT_ID>
s3892

> <PUBCHEM_NCBI_GENE_ID>
1594

> <PUBCHEM_NCBI_PROBE_ID>
16757896

> <PUBCHEM_EXT_DATASOURCE_URL>
http://www.invitrogen.com/site/us/en/home/Products-and-Services/Applications/rnai/Synthetic-RNAi-Analysis/Ambion-Silencer-Select-siRNAs.html

> <PUBCHEM_EXT_SUBSTANCE_URL>
http://bioinfo.invitrogen.com/genome-database/details/sirna/s3892

$$$$
160962910
  -OEChem-04041605452D

 54 58  0     1  0  0  0  0  0999 V2000
    4.9873   -6.6298    0.0000 S   0  0  0  0  0  0  0  0  0  0  0  0
   17.8987   -5.2273    0.0000 S   0  0  0  0  0  0  0  0  0  0  0  0
    7.8749   -4.2785    0.0000 O   0  0  0  0  0  0  0  0  0  0  0  0
   10.0199   -6.3410    0.0000 O   0  0  0  0  0  0  0  0  0  0  0  0
   15.7124   -5.4748    0.0000 O   0  0  0  0  0  0  0  0  0  0  0  0
    8.5449   -1.4100    0.0000 O   0  0  0  0  0  0  0  0  0  0  0  0
   14.9699   -4.2785    0.0000 O   0  0  0  0  0  0  0  0  0  0  0  0
    7.1736   -5.5160    0.0000 N   0  0  0  0  0  0  0  0  0  0  0  0
    4.9461   -5.3098    0.0000 N   0  0  0  0  0  0  0  0  0  0  0  0
    8.5761   -5.5160    0.0000 N   0  0  0  0  0  0  0  0  0  0  0  0
   10.7211   -5.1035    0.0000 N   0  0  0  0  0  0  0  0  0  0  0  0
    8.5555   -3.0542    0.0000 N   0  0  0  0  0  0  0  0  0  0  0  0
   14.2687   -5.4748    0.0000 N   0  0  0  0  0  0  0  0  0  0  0  0
   17.8987   -6.5473    0.0000 N   0  0  0  0  0  0  0  0  0  0  0  0
    5.7298   -5.5160    0.0000 C   0  0  0  0  0  0  0  0  0  0  0  0
    9.2774   -5.1035    0.0000 C   0  0  3  0  0  0  0  0  0  0  0  0
    4.4923   -6.0110    0.0000 C   0  0  0  0  0  0  0  0  0  0  0  0
    7.8749   -5.1035    0.0000 C   0  0  0  0  0  0  0  0  0  0  0  0
   10.0199   -5.5160    0.0000 C   0  0  0  0  0  0  0  0  0  0  0  0
    6.4311   -5.1035    0.0000 C   0  0  0  0  0  0  0  0  0  0  0  0
    5.7298   -6.3410    0.0000 C   0  0  0  0  0  0  0  0  0  0  0  0
   11.4224   -5.5160    0.0000 C   0  0  3  0  0  0  0  0  0  0  0  0
    3.6673   -6.0110    0.0000 C   0  0  0  0  0  0  0  0  0  0  0  0
    9.2673   -4.2786    0.0000 C   0  0  0  0  0  0  0  0  0  0  0  0
   11.4224   -6.3410    0.0000 C   0  0  0  0  0  0  0  0  0  0  0  0
   12.1236   -5.1035    0.0000 C   0  0  0  0  0  0  0  0  0  0  0  0
   13.5674   -5.1035    0.0000 C   0  0  3  0  0  0  0  0  0  0  0  0
   12.1369   -6.7535    0.0000 C   0  0  0  0  0  0  0  0  0  0  0  0
    8.5555   -3.8792    0.0000 C   0  0  0  0  0  0  0  0  0  0  0  0
   12.8661   -5.5160    0.0000 C   0  0  0  0  0  0  0  0  0  0  0  0
    7.1736   -6.3410    0.0000 C   0  0  0  0  0  0  0  0  0  0  0  0
   13.5674   -4.2785    0.0000 C   0  0  0  0  0  0  0  0  0  0  0  0
   12.8249   -3.8660    0.0000 C   0  0  0  0  0  0  0  0  0  0  0  0
   14.9699   -5.1035    0.0000 C   0  0  0  0  0  0  0  0  0  0  0  0
   12.1369   -7.5784    0.0000 C   0  0  0  0  0  0  0  0  0  0  0  0
   12.8514   -6.3410    0.0000 C   0  0  0  0  0  0  0  0  0  0  0  0
    3.2136   -5.3098    0.0000 C   0  0  0  0  0  0  0  0  0  0  0  0
    3.2961   -6.7123    0.0000 C   0  0  0  0  0  0  0  0  0  0  0  0
    9.2598   -2.6472    0.0000 C   0  0  0  0  0  0  0  0  0  0  0  0
    7.8408   -2.6419    0.0000 C   0  0  0  0  0  0  0  0  0  0  0  0
   12.8249   -3.0410    0.0000 C   0  0  0  0  0  0  0  0  0  0  0  0
   12.1236   -4.2785    0.0000 C   0  0  0  0  0  0  0  0  0  0  0  0
   17.1149   -5.4748    0.0000 C   0  0  0  0  0  0  0  0  0  0  0  0
   12.8514   -7.9909    0.0000 C   0  0  0  0  0  0  0  0  0  0  0  0
   13.5659   -6.7535    0.0000 C   0  0  0  0  0  0  0  0  0  0  0  0
   16.4137   -5.0623    0.0000 C   0  0  0  0  0  0  0  0  0  0  0  0
    9.2595   -1.8221    0.0000 C   0  0  0  0  0  0  0  0  0  0  0  0
    7.8405   -1.8169    0.0000 C   0  0  0  0  0  0  0  0  0  0  0  0
   13.5659   -7.5784    0.0000 C   0  0  0  0  0  0  0  0  0  0  0  0
   12.1236   -2.6285    0.0000 C   0  0  0  0  0  0  0  0  0  0  0  0
   11.4224   -3.8660    0.0000 C   0  0  0  0  0  0  0  0  0  0  0  0
   17.1149   -6.2998    0.0000 C   0  0  0  0  0  0  0  0  0  0  0  0
   11.4224   -3.0410    0.0000 C   0  0  0  0  0  0  0  0  0  0  0  0
   18.3937   -5.8873    0.0000 C   0  0  0  0  0  0  0  0  0  0  0  0
  1 17  1  0  0  0  0
  1 21  1  0  0  0  0
  2 43  1  0  0  0  0
  2 54  1  0  0  0  0
  3 18  2  0  0  0  0
  4 19  2  0  0  0  0
  5 34  1  0  0  0  0
  5 46  1  0  0  0  0
  6 47  1  0  0  0  0
  6 48  1  0  0  0  0
  7 34  2  0  0  0  0
  8 18  1  0  0  0  0
  8 20  1  0  0  0  0
  8 31  1  0  0  0  0
  9 15  1  0  0  0  0
  9 17  2  0  0  0  0
 16 10  1  1  0  0  0
 10 18  1  0  0  0  0
 11 19  1  0  0  0  0
 11 22  1  0  0  0  0
 12 29  1  0  0  0  0
 12 39  1  0  0  0  0
 12 40  1  0  0  0  0
 13 27  1  0  0  0  0
 13 34  1  0  0  0  0
 14 52  1  0  0  0  0
 14 54  2  0  0  0  0
 15 20  1  0  0  0  0
 15 21  2  0  0  0  0
 16 19  1  0  0  0  0
 16 24  1  0  0  0  0
 17 23  1  0  0  0  0
 22 25  1  6  0  0  0
 22 26  1  0  0  0  0
 23 37  1  0  0  0  0
 23 38  1  0  0  0  0
 24 29  1  0  0  0  0
 25 28  1  0  0  0  0
 26 30  1  0  0  0  0
 27 30  1  0  0  0  0
 27 32  1  6  0  0  0
 28 35  2  0  0  0  0
 28 36  1  0  0  0  0
 32 33  1  0  0  0  0
 33 41  2  0  0  0  0
 33 42  1  0  0  0  0
 35 44  1  0  0  0  0
 36 45  2  0  0  0  0
 39 47  1  0  0  0  0
 40 48  1  0  0  0  0
 41 50  1  0  0  0  0
 42 51  2  0  0  0  0
 43 46  1  0  0  0  0
 43 52  2  0  0  0  0
 44 49  2  0  0  0  0
 45 49  1  0  0  0  0
 50 53  2  0  0  0  0
 51 53  1  0  0  0  0
M  END
> <PUBCHEM_COMPOUND_ID_TYPE>
0

> <PUBCHEM_TOTAL_CHARGE>
0

> <PUBCHEM_SUBSTANCE_ID>
160962910

> <PUBCHEM_SUBSTANCE_VERSION>
4

> <PUBCHEM_EXT_DATASOURCE_NAME>
ChEBI

> <PUBCHEM_EXT_DATASOURCE_REGID>
CHEBI:72291

> <PUBCHEM_SUBSTANCE_SYNONYM>
1,3-thiazol-5-ylmethyl [(2R,5R)-5-{[(2S)-2-({[(2-isopropyl-1,3-thiazol-4-yl)methyl](methyl)carbamoyl}amino)-4-(morpholin-4-yl)butanoyl]amino}-1,6-diphenylhexan-2-yl]carbamate
CHEBI:72291
GS 9350
GS-9350
cobicistat
cobicistatum

> <PUBCHEM_XREF_EXT_ID>
CHEBI:72291

> <PUBCHEM_EXT_DATASOURCE_URL>
http://www.ebi.ac.uk/chebi/

> <PUBCHEM_EXT_SUBSTANCE_URL>
http://www.ebi.ac.uk/chebi/searchId.do?chebiId=CHEBI:72291

> <PUBCHEM_CID_ASSOCIATIONS>
25151504  1

> <PUBCHEM_COORDINATE_TYPE>
1
3

> <PUBCHEM_BONDANNOTATIONS>
16  10  5
22  25  6
27  32  6

$$$$
162093064
  -OEChem-04041605452D

 25 28  0     1  0  0  0  0  0999 V2000
    2.8728   -3.9050    0.0000 O   0  0  0  0  0  0  0  0  0  0  0  0
    8.7655   -1.6450    0.0000 O   0  0  0  0  0  0  0  0  0  0  0  0
    1.2871   -1.1364    0.0000 N   0  0  0  0  0  0  0  0  0  0  0  0
    3.8928   -2.5163    0.0000 C   0  0  3  0  0  0  0  0  0  0  0  0
    4.1731   -1.7404    0.0000 C   0  0  3  0  0  0  0  0  0  0  0  0
    4.9853   -1.5952    0.0000 C   0  0  3  0  0  0  0  0  0  0  0  0
    5.5171   -2.2259    0.0000 C   0  0  3  0  0  0  0  0  0  0  0  0
    6.3292   -2.0807    0.0000 C   0  0  3  0  0  0  0  0  0  0  0  0
    3.0683   -2.4895    0.0000 C   0  0  3  0  0  0  0  0  0  0  0  0
    2.8390   -1.6970    0.0000 C   0  0  3  0  0  0  0  0  0  0  0  0
    4.4247   -3.1470    0.0000 C   0  0  0  0  0  0  0  0  0  0  0  0
    3.5218   -1.2340    0.0000 C   0  0  0  0  0  0  0  0  0  0  0  0
    6.6095   -1.3047    0.0000 C   0  0  0  0  0  0  0  0  0  0  0  0
    5.2368   -3.0018    0.0000 C   0  0  0  0  0  0  0  0  0  0  0  0
    5.2655   -0.8192    0.0000 C   0  0  0  0  0  0  0  0  0  0  0  0
    2.5619   -3.1408    0.0000 C   0  0  0  0  0  0  0  0  0  0  0  0
    6.8610   -2.7114    0.0000 C   0  0  0  0  0  0  0  0  0  0  0  0
    6.0777   -0.6740    0.0000 C   0  0  0  0  0  0  0  0  0  0  0  0
    3.5330   -3.2587    0.0000 C   0  0  0  0  0  0  0  0  0  0  0  0
    7.4216   -1.1595    0.0000 C   0  0  0  0  0  0  0  0  0  0  0  0
    6.0489   -2.8566    0.0000 C   0  0  0  0  0  0  0  0  0  0  0  0
    2.0630   -1.4167    0.0000 C   0  0  0  0  0  0  0  0  0  0  0  0
    7.9534   -1.7902    0.0000 C   0  0  3  0  0  0  0  0  0  0  0  0
    7.6731   -2.5662    0.0000 C   0  0  0  0  0  0  0  0  0  0  0  0
    1.7447   -3.0280    0.0000 C   0  0  0  0  0  0  0  0  0  0  0  0
  1 16  2  0  0  0  0
  2 23  1  0  0  0  0
  3 22  3  0  0  0  0
  4  5  1  0  0  0  0
  4  9  1  0  0  0  0
  4 11  1  0  0  0  0
  4 19  1  0  0  0  0
  5  6  1  0  0  0  0
  5 12  1  0  0  0  0
  6  7  1  0  0  0  0
  6 15  1  0  0  0  0
  7  8  1  0  0  0  0
  7 14  1  0  0  0  0
  8 13  1  0  0  0  0
  8 17  1  0  0  0  0
  8 21  1  0  0  0  0
  9 10  1  0  0  0  0
  9 16  1  0  0  0  0
 10 12  1  0  0  0  0
 10 22  1  0  0  0  0
 11 14  1  0  0  0  0
 13 18  2  0  0  0  0
 13 20  1  0  0  0  0
 15 18  1  0  0  0  0
 16 25  1  0  0  0  0
 17 24  1  0  0  0  0
 20 23  1  0  0  0  0
 23 24  1  0  0  0  0
M  END
> <PUBCHEM_COMPOUND_ID_TYPE>
0

> <PUBCHEM_TOTAL_CHARGE>
0

> <PUBCHEM_SUBSTANCE_ID>
162093064

> <PUBCHEM_SUBSTANCE_VERSION>
1

> <PUBCHEM_EXT_DATASOURCE_NAME>
1052

> <PUBCHEM_EXT_DATASOURCE_REGID>
104547

> <PUBCHEM_SUBSTANCE_SYNONYM>
1434-54-4
Pregnenolone-16alpha-carbonitrile
pregnenolone 16 |A-carbonitrile

> <PUBCHEM_GENERIC_REGISTRY_NAME>
1434-54-4

> <PUBCHEM_XREF_EXT_ID>
104547

> <PUBCHEM_EXT_DATASOURCE_URL>
http://www.chembase.cn

> <PUBCHEM_EXT_SUBSTANCE_URL>
http://www.chembase.cn/molecule-104547.html

> <PUBCHEM_CID_ASSOCIATIONS>
5225515  1

> <PUBCHEM_COORDINATE_TYPE>
1
3

$$$$
162223397
  -OEChem-04041605452D

 25 28  0     1  0  0  0  0  0999 V2000
    4.9830   -1.5571    0.0000 O   0  0  0  0  0  0  0  0  0  0  0  0
   -0.9098    0.7029    0.0000 O   0  0  0  0  0  0  0  0  0  0  0  0
    6.5687    1.2115    0.0000 N   0  0  0  0  0  0  0  0  0  0  0  0
    3.9629   -0.1684    0.0000 C   0  0  3  0  0  0  0  0  0  0  0  0
    3.6826    0.6076    0.0000 C   0  0  3  0  0  0  0  0  0  0  0  0
    2.8705    0.7528    0.0000 C   0  0  3  0  0  0  0  0  0  0  0  0
    2.3387    0.1221    0.0000 C   0  0  3  0  0  0  0  0  0  0  0  0
    1.5266    0.2673    0.0000 C   0  0  3  0  0  0  0  0  0  0  0  0
    4.7875   -0.1416    0.0000 C   0  0  3  0  0  0  0  0  0  0  0  0
    5.0168    0.6509    0.0000 C   0  0  3  0  0  0  0  0  0  0  0  0
    3.4311   -0.7991    0.0000 C   0  0  0  0  0  0  0  0  0  0  0  0
    4.3340    1.1139    0.0000 C   0  0  0  0  0  0  0  0  0  0  0  0
    1.2463    1.0432    0.0000 C   0  0  0  0  0  0  0  0  0  0  0  0
    2.6190   -0.6539    0.0000 C   0  0  0  0  0  0  0  0  0  0  0  0
    2.5902    1.5287    0.0000 C   0  0  0  0  0  0  0  0  0  0  0  0
    5.2939   -0.7929    0.0000 C   0  0  0  0  0  0  0  0  0  0  0  0
    0.9948   -0.3634    0.0000 C   0  0  0  0  0  0  0  0  0  0  0  0
    1.7781    1.6739    0.0000 C   0  0  0  0  0  0  0  0  0  0  0  0
    4.3228   -0.9107    0.0000 C   0  0  0  0  0  0  0  0  0  0  0  0
    0.4342    1.1884    0.0000 C   0  0  0  0  0  0  0  0  0  0  0  0
    1.8069   -0.5086    0.0000 C   0  0  0  0  0  0  0  0  0  0  0  0
    5.7927    0.9312    0.0000 C   0  0  0  0  0  0  0  0  0  0  0  0
   -0.0976    0.5577    0.0000 C   0  0  3  0  0  0  0  0  0  0  0  0
    0.1827   -0.2182    0.0000 C   0  0  0  0  0  0  0  0  0  0  0  0
    6.1111   -0.6800    0.0000 C   0  0  0  0  0  0  0  0  0  0  0  0
  1 16  2  0  0  0  0
 23  2  1  6  0  0  0
  3 22  3  0  0  0  0
  4  5  1  0  0  0  0
  4  9  1  0  0  0  0
  4 11  1  0  0  0  0
  4 19  1  6  0  0  0
  5  6  1  0  0  0  0
  5 12  1  6  0  0  0
  6  7  1  0  0  0  0
  6 15  1  1  0  0  0
  7  8  1  0  0  0  0
  7 14  1  6  0  0  0
  8 13  1  0  0  0  0
  8 17  1  0  0  0  0
  8 21  1  6  0  0  0
  9 10  1  0  0  0  0
  9 16  1  6  0  0  0
 10 12  1  0  0  0  0
 10 22  1  1  0  0  0
 11 14  1  0  0  0  0
 13 18  2  0  0  0  0
 13 20  1  0  0  0  0
 15 18  1  0  0  0  0
 16 25  1  0  0  0  0
 17 24  1  0  0  0  0
 20 23  1  0  0  0  0
 23 24  1  0  0  0  0
M  END
> <PUBCHEM_COMPOUND_ID_TYPE>
0

> <PUBCHEM_TOTAL_CHARGE>
0

> <PUBCHEM_SUBSTANCE_ID>
162223397

> <PUBCHEM_SUBSTANCE_VERSION>
1

> <PUBCHEM_EXT_DATASOURCE_NAME>
1052

> <PUBCHEM_EXT_DATASOURCE_REGID>
129098

> <PUBCHEM_SUBSTANCE_SYNONYM>
1434-54-4
5-Pregnen-3|A-ol-20-one-16|A-carbonitrile
Pregnenolone carbonitrile
Pregnenolone-16|A-carbonitrile

> <PUBCHEM_GENERIC_REGISTRY_NAME>
1434-54-4

> <PUBCHEM_XREF_EXT_ID>
129098

> <PUBCHEM_EXT_DATASOURCE_URL>
http://www.chembase.cn

> <PUBCHEM_EXT_SUBSTANCE_URL>
http://www.chembase.cn/molecule-129098.html

> <PUBCHEM_CID_ASSOCIATIONS>
15032  1

> <PUBCHEM_COORDINATE_TYPE>
1
3

> <PUBCHEM_BONDANNOTATIONS>
10  22  5
23  2  6
4  19  6
5  12  6
6  15  5
7  14  6
8  21  6
9  16  6

$$$$
162832471
  -OEChem-04041605452D

 10  9  0     1  0  0  0  0  0999 V2000
    0.0000    0.0000    0.0000 O   0  0  0  0  0  0  0  0  0  0  0  0
    0.0000    0.0000    0.0000 N   0  0  0  0  0  0  0  0  0  0  0  0
    0.0000    0.0000    0.0000 C   0  0  3  0  0  0  0  0  0  0  0  0
    0.0000    0.0000    0.0000 C   0  0  0  0  0  0  0  0  0  0  0  0
    0.0000    0.0000    0.0000 C   0  0  0  0  0  0  0  0  0  0  0  0
    0.0000    0.0000    0.0000 C   0  0  0  0  0  0  0  0  0  0  0  0
    0.0000    0.0000    0.0000 C   0  0  0  0  0  0  0  0  0  0  0  0
    0.0000    0.0000    0.0000 C   0  0  0  0  0  0  0  0  0  0  0  0
    0.0000    0.0000    0.0000 C   0  0  0  0  0  0  0  0  0  0  0  0
    0.0000    0.0000    0.0000 C   0  0  0  0  0  0  0  0  0  0  0  0
  1  4  2  0  0  0  0
  2  4  1  0  0  0  0
  3  4  1  0  0  0  0
  3  5  1  0  0  0  0
  3  6  1  0  0  0  0
  5  8  1  0  0  0  0
  5  9  1  0  0  0  0
  6  7  1  0  0  0  0
  7 10  2  0  0  0  0
M  END
> <PUBCHEM_COMPOUND_ID_TYPE>
0

> <PUBCHEM_TOTAL_CHARGE>
0

> <PUBCHEM_SUBSTANCE_ID>
162832471

> <PUBCHEM_SUBSTANCE_VERSION>
1

> <PUBCHEM_EXT_DATASOURCE_NAME>
1096

> <PUBCHEM_EXT_DATASOURCE_REGID>
CTK4G4154

> <PUBCHEM_SUBSTANCE_SYNONYM>
299-78-5
4-Pentenamide,2-(1-methylethyl)-
CTK4G4154

> <PUBCHEM_GENERIC_REGISTRY_NAME>
299-78-5

> <PUBCHEM_XREF_EXT_ID>
CTK4G4154

> <PUBCHEM_EXT_DATASOURCE_URL>
http://www.chemtik.com/

> <PUBCHEM_EXT_SUBSTANCE_URL>
http://www.chemtik.com/pro_result/464154/

> <PUBCHEM_CID_ASSOCIATIONS>
9297  1

$$$$
163131876
  -OEChem-04041605452D

 31 34  0     1  0  0  0  0  0999 V2000
    0.0000    0.0000    0.0000 O   0  0  0  0  0  0  0  0  0  0  0  0
    0.0000    0.0000    0.0000 O   0  0  0  0  0  0  0  0  0  0  0  0
    0.0000    0.0000    0.0000 N   0  0  0  0  0  0  0  0  0  0  0  0
    0.0000    0.0000    0.0000 C   0  0  2  0  0  0  0  0  0  0  0  0
    0.0000    0.0000    0.0000 C   0  0  1  0  0  0  0  0  0  0  0  0
    0.0000    0.0000    0.0000 C   0  0  1  0  0  0  0  0  0  0  0  0
    0.0000    0.0000    0.0000 C   0  0  2  0  0  0  0  0  0  0  0  0
    0.0000    0.0000    0.0000 C   0  0  1  0  0  0  0  0  0  0  0  0
    0.0000    0.0000    0.0000 C   0  0  1  0  0  0  0  0  0  0  0  0
    0.0000    0.0000    0.0000 C   0  0  0  0  0  0  0  0  0  0  0  0
    0.0000    0.0000    0.0000 C   0  0  2  0  0  0  0  0  0  0  0  0
    0.0000    0.0000    0.0000 C   0  0  0  0  0  0  0  0  0  0  0  0
    0.0000    0.0000    0.0000 C   0  0  0  0  0  0  0  0  0  0  0  0
    0.0000    0.0000    0.0000 C   0  0  0  0  0  0  0  0  0  0  0  0
    0.0000    0.0000    0.0000 C   0  0  0  0  0  0  0  0  0  0  0  0
    0.0000    0.0000    0.0000 C   0  0  0  0  0  0  0  0  0  0  0  0
    0.0000    0.0000    0.0000 C   0  0  0  0  0  0  0  0  0  0  0  0
    0.0000    0.0000    0.0000 C   0  0  0  0  0  0  0  0  0  0  0  0
    0.0000    0.0000    0.0000 C   0  0  0  0  0  0  0  0  0  0  0  0
    0.0000    0.0000    0.0000 C   0  0  0  0  0  0  0  0  0  0  0  0
    0.0000    0.0000    0.0000 C   0  0  0  0  0  0  0  0  0  0  0  0
    0.0000    0.0000    0.0000 C   0  0  0  0  0  0  0  0  0  0  0  0
    0.0000    0.0000    0.0000 C   0  0  2  0  0  0  0  0  0  0  0  0
    0.0000    0.0000    0.0000 C   0  0  0  0  0  0  0  0  0  0  0  0
    0.0000    0.0000    0.0000 C   0  0  0  0  0  0  0  0  0  0  0  0
    0.0000    0.0000    0.0000 H   0  0  0  0  0  0  0  0  0  0  0  0
    0.0000    0.0000    0.0000 H   0  0  0  0  0  0  0  0  0  0  0  0
    0.0000    0.0000    0.0000 H   0  0  0  0  0  0  0  0  0  0  0  0
    0.0000    0.0000    0.0000 H   0  0  0  0  0  0  0  0  0  0  0  0
    0.0000    0.0000    0.0000 H   0  0  0  0  0  0  0  0  0  0  0  0
    0.0000    0.0000    0.0000 H   0  0  0  0  0  0  0  0  0  0  0  0
  1 15  2  0  0  0  0
  2 23  1  0  0  0  0
  3 19  3  0  0  0  0
  4  5  1  0  0  0  0
  4  6  1  0  0  0  0
  4 10  1  0  0  0  0
  4 26  1  0  0  0  0
  5  7  1  0  0  0  0
  5 12  1  0  0  0  0
  5 17  1  0  0  0  0
  6  8  1  0  0  0  0
  6 14  1  0  0  0  0
  6 27  1  0  0  0  0
  7  9  1  0  0  0  0
  7 15  1  0  0  0  0
  7 28  1  0  0  0  0
  8 11  1  0  0  0  0
  8 13  1  0  0  0  0
  8 29  1  0  0  0  0
  9 10  1  0  0  0  0
  9 19  1  0  0  0  0
  9 30  1  0  0  0  0
 11 16  1  0  0  0  0
 11 20  1  0  0  0  0
 11 21  1  0  0  0  0
 12 13  1  0  0  0  0
 14 18  1  0  0  0  0
 15 25  1  0  0  0  0
 16 18  2  0  0  0  0
 16 22  1  0  0  0  0
 20 24  1  0  0  0  0
 22 23  1  0  0  0  0
 23 24  1  0  0  0  0
 23 31  1  0  0  0  0
M  END
> <PUBCHEM_COMPOUND_ID_TYPE>
0

> <PUBCHEM_TOTAL_CHARGE>
0

> <PUBCHEM_SUBSTANCE_ID>
163131876

> <PUBCHEM_SUBSTANCE_VERSION>
1

> <PUBCHEM_EXT_DATASOURCE_NAME>
1096

> <PUBCHEM_EXT_DATASOURCE_REGID>
CTK8F6966

> <PUBCHEM_SUBSTANCE_SYNONYM>
1434-54-4
5-Pregnen-3beta-ol-20-one-16alpha-carbonitrile
CTK8F6966

> <PUBCHEM_GENERIC_REGISTRY_NAME>
1434-54-4

> <PUBCHEM_XREF_EXT_ID>
CTK8F6966

> <PUBCHEM_EXT_DATASOURCE_URL>
http://www.chemtik.com/

> <PUBCHEM_EXT_SUBSTANCE_URL>
http://www.chemtik.com/pro_result/856963/

> <PUBCHEM_CID_ASSOCIATIONS>
15032  1

$$$$
164045125
  -OEChem-04041605452D

 54 58  0     1  0  0  0  0  0999 V2000
    3.1919   -9.9545    0.0000 S   0  0  0  0  0  0  0  0  0  0  0  0
   27.3354   -7.5038    0.0000 S   0  0  0  0  0  0  0  0  0  0  0  0
    8.7977   -5.8387    0.0000 O   0  0  0  0  0  0  0  0  0  0  0  0
   12.7545   -9.6462    0.0000 O   0  0  0  0  0  0  0  0  0  0  0  0
   23.3062   -8.1232    0.0000 O   0  0  0  0  0  0  0  0  0  0  0  0
   10.1166   -0.5082    0.0000 O   0  0  0  0  0  0  0  0  0  0  0  0
   21.9872   -5.8387    0.0000 O   0  0  0  0  0  0  0  0  0  0  0  0
    7.4787   -8.1232    0.0000 N   0  0  0  0  0  0  0  0  0  0  0  0
    3.4495   -7.5038    0.0000 N   0  0  0  0  0  0  0  0  0  0  0  0
   10.1166   -8.1232    0.0000 N   0  0  0  0  0  0  0  0  0  0  0  0
   14.0735   -7.3617    0.0000 N   0  0  0  0  0  0  0  0  0  0  0  0
   10.1166   -3.5542    0.0000 N   0  0  0  0  0  0  0  0  0  0  0  0
   20.6683   -8.1232    0.0000 N   0  0  0  0  0  0  0  0  0  0  0  0
   27.5930   -9.9545    0.0000 N   0  0  0  0  0  0  0  0  0  0  0  0
    4.8408   -8.1232    0.0000 C   0  0  0  0  0  0  0  0  0  0  0  0
   11.4356   -7.3617    0.0000 C   0  0  3  0  0  0  0  0  0  0  0  0
    2.4304   -8.6356    0.0000 C   0  0  0  0  0  0  0  0  0  0  0  0
    8.7977   -7.3617    0.0000 C   0  0  0  0  0  0  0  0  0  0  0  0
   12.7545   -8.1232    0.0000 C   0  0  0  0  0  0  0  0  0  0  0  0
    6.1598   -7.3617    0.0000 C   0  0  0  0  0  0  0  0  0  0  0  0
    4.6816   -9.6379    0.0000 C   0  0  0  0  0  0  0  0  0  0  0  0
   15.3925   -8.1232    0.0000 C   0  0  3  0  0  0  0  0  0  0  0  0
    0.9157   -8.4764    0.0000 C   0  0  0  0  0  0  0  0  0  0  0  0
   11.4356   -5.8387    0.0000 C   0  0  0  0  0  0  0  0  0  0  0  0
   15.3925   -9.6462    0.0000 C   0  0  0  0  0  0  0  0  0  0  0  0
   16.7114   -7.3617    0.0000 C   0  0  0  0  0  0  0  0  0  0  0  0
   19.3493   -7.3617    0.0000 C   0  0  3  0  0  0  0  0  0  0  0  0
   16.7114  -10.4077    0.0000 C   0  0  0  0  0  0  0  0  0  0  0  0
   10.1166   -5.0772    0.0000 C   0  0  0  0  0  0  0  0  0  0  0  0
   18.0304   -8.1232    0.0000 C   0  0  0  0  0  0  0  0  0  0  0  0
    7.4787   -9.6462    0.0000 C   0  0  0  0  0  0  0  0  0  0  0  0
   19.3493   -5.8387    0.0000 C   0  0  0  0  0  0  0  0  0  0  0  0
   18.0304   -5.0772    0.0000 C   0  0  0  0  0  0  0  0  0  0  0  0
   21.9872   -7.3617    0.0000 C   0  0  0  0  0  0  0  0  0  0  0  0
   18.0304   -9.6462    0.0000 C   0  0  0  0  0  0  0  0  0  0  0  0
   16.7114  -11.9307    0.0000 C   0  0  0  0  0  0  0  0  0  0  0  0
    0.2963   -7.0851    0.0000 C   0  0  0  0  0  0  0  0  0  0  0  0
    0.0205   -9.7085    0.0000 C   0  0  0  0  0  0  0  0  0  0  0  0
    8.7977   -2.7927    0.0000 C   0  0  0  0  0  0  0  0  0  0  0  0
   11.4356   -2.7927    0.0000 C   0  0  0  0  0  0  0  0  0  0  0  0
   16.7114   -5.8387    0.0000 C   0  0  0  0  0  0  0  0  0  0  0  0
   18.0304   -3.5542    0.0000 C   0  0  0  0  0  0  0  0  0  0  0  0
   25.9441   -8.1232    0.0000 C   0  0  0  0  0  0  0  0  0  0  0  0
   19.3493  -10.4077    0.0000 C   0  0  0  0  0  0  0  0  0  0  0  0
   18.0304  -12.6922    0.0000 C   0  0  0  0  0  0  0  0  0  0  0  0
   24.6252   -7.3617    0.0000 C   0  0  0  0  0  0  0  0  0  0  0  0
    8.7977   -1.2697    0.0000 C   0  0  0  0  0  0  0  0  0  0  0  0
   11.4356   -1.2697    0.0000 C   0  0  0  0  0  0  0  0  0  0  0  0
   19.3493  -11.9307    0.0000 C   0  0  0  0  0  0  0  0  0  0  0  0
   15.3925   -5.0772    0.0000 C   0  0  0  0  0  0  0  0  0  0  0  0
   16.7114   -2.7927    0.0000 C   0  0  0  0  0  0  0  0  0  0  0  0
   26.1033   -9.6379    0.0000 C   0  0  0  0  0  0  0  0  0  0  0  0
   15.3925   -3.5542    0.0000 C   0  0  0  0  0  0  0  0  0  0  0  0
   28.3545   -8.6356    0.0000 C   0  0  0  0  0  0  0  0  0  0  0  0
  1 17  1  0  0  0  0
  1 21  1  0  0  0  0
  2 43  1  0  0  0  0
  2 54  1  0  0  0  0
  3 18  2  0  0  0  0
  4 19  2  0  0  0  0
  5 34  1  0  0  0  0
  5 46  1  0  0  0  0
  6 47  1  0  0  0  0
  6 48  1  0  0  0  0
  7 34  2  0  0  0  0
  8 18  1  0  0  0  0
  8 20  1  0  0  0  0
  8 31  1  0  0  0  0
  9 15  1  0  0  0  0
  9 17  2  0  0  0  0
 16 10  1  1  0  0  0
 10 18  1  0  0  0  0
 11 19  1  0  0  0  0
 22 11  1  6  0  0  0
 12 29  1  0  0  0  0
 12 39  1  0  0  0  0
 12 40  1  0  0  0  0
 27 13  1  6  0  0  0
 13 34  1  0  0  0  0
 14 52  1  0  0  0  0
 14 54  2  0  0  0  0
 15 20  1  0  0  0  0
 15 21  2  0  0  0  0
 16 19  1  0  0  0  0
 16 24  1  0  0  0  0
 17 23  1  0  0  0  0
 22 25  1  0  0  0  0
 22 26  1  0  0  0  0
 23 37  1  0  0  0  0
 23 38  1  0  0  0  0
 24 29  1  0  0  0  0
 25 28  1  0  0  0  0
 26 30  1  0  0  0  0
 27 30  1  0  0  0  0
 27 32  1  0  0  0  0
 28 35  2  0  0  0  0
 28 36  1  0  0  0  0
 32 33  1  0  0  0  0
 33 41  2  0  0  0  0
 33 42  1  0  0  0  0
 35 44  1  0  0  0  0
 36 45  2  0  0  0  0
 39 47  1  0  0  0  0
 40 48  1  0  0  0  0
 41 50  1  0  0  0  0
 42 51  2  0  0  0  0
 43 46  1  0  0  0  0
 43 52  2  0  0  0  0
 44 49  2  0  0  0  0
 45 49  1  0  0  0  0
 50 53  2  0  0  0  0
 51 53  1  0  0  0  0
M  END
> <PUBCHEM_COMPOUND_ID_TYPE>
0

> <PUBCHEM_TOTAL_CHARGE>
0

> <PUBCHEM_SUBSTANCE_ID>
164045125

> <PUBCHEM_SUBSTANCE_VERSION>
2

> <PUBCHEM_EXT_DATASOURCE_NAME>
1155

> <PUBCHEM_EXT_DATASOURCE_REGID>
QCR-199

> <PUBCHEM_SUBSTANCE_SYNONYM>
1004316-88-4
Cobicistat
QCR-199

> <PUBCHEM_GENERIC_REGISTRY_NAME>
1004316-88-4

> <PUBCHEM_XREF_EXT_ID>
QCR-199

> <PUBCHEM_EXT_DATASOURCE_URL>
http://www.cegchemical.com

> <PUBCHEM_EXT_SUBSTANCE_URL>
http://www.cegchemical.com/web/products3_goodscode_QCR-199.html

> <PUBCHEM_CID_ASSOCIATIONS>
25151504  1

> <PUBCHEM_COORDINATE_TYPE>
1
3

> <PUBCHEM_BONDANNOTATIONS>
16  10  5
22  11  6
27  13  6

$$$$
176265325
  -OEChem-04041605452D

 25 28  0     1  0  0  0  0  0999 V2000
    0.0000    0.0000    0.0000 O   0  0  0  0  0  0  0  0  0  0  0  0
    0.0000    0.0000    0.0000 O   0  0  0  0  0  0  0  0  0  0  0  0
    0.0000    0.0000    0.0000 N   0  0  0  0  0  0  0  0  0  0  0  0
    0.0000    0.0000    0.0000 C   0  0  3  0  0  0  0  0  0  0  0  0
    0.0000    0.0000    0.0000 C   0  0  3  0  0  0  0  0  0  0  0  0
    0.0000    0.0000    0.0000 C   0  0  3  0  0  0  0  0  0  0  0  0
    0.0000    0.0000    0.0000 C   0  0  3  0  0  0  0  0  0  0  0  0
    0.0000    0.0000    0.0000 C   0  0  3  0  0  0  0  0  0  0  0  0
    0.0000    0.0000    0.0000 C   0  0  3  0  0  0  0  0  0  0  0  0
    0.0000    0.0000    0.0000 C   0  0  3  0  0  0  0  0  0  0  0  0
    0.0000    0.0000    0.0000 C   0  0  0  0  0  0  0  0  0  0  0  0
    0.0000    0.0000    0.0000 C   0  0  0  0  0  0  0  0  0  0  0  0
    0.0000    0.0000    0.0000 C   0  0  0  0  0  0  0  0  0  0  0  0
    0.0000    0.0000    0.0000 C   0  0  0  0  0  0  0  0  0  0  0  0
    0.0000    0.0000    0.0000 C   0  0  0  0  0  0  0  0  0  0  0  0
    0.0000    0.0000    0.0000 C   0  0  0  0  0  0  0  0  0  0  0  0
    0.0000    0.0000    0.0000 C   0  0  0  0  0  0  0  0  0  0  0  0
    0.0000    0.0000    0.0000 C   0  0  0  0  0  0  0  0  0  0  0  0
    0.0000    0.0000    0.0000 C   0  0  0  0  0  0  0  0  0  0  0  0
    0.0000    0.0000    0.0000 C   0  0  0  0  0  0  0  0  0  0  0  0
    0.0000    0.0000    0.0000 C   0  0  0  0  0  0  0  0  0  0  0  0
    0.0000    0.0000    0.0000 C   0  0  0  0  0  0  0  0  0  0  0  0
    0.0000    0.0000    0.0000 C   0  0  3  0  0  0  0  0  0  0  0  0
    0.0000    0.0000    0.0000 C   0  0  0  0  0  0  0  0  0  0  0  0
    0.0000    0.0000    0.0000 C   0  0  0  0  0  0  0  0  0  0  0  0
  1 16  2  0  0  0  0
  2 23  1  0  0  0  0
  3 22  3  0  0  0  0
  4  5  1  0  0  0  0
  4  9  1  0  0  0  0
  4 11  1  0  0  0  0
  4 19  1  0  0  0  0
  5  6  1  0  0  0  0
  5 12  1  0  0  0  0
  6  7  1  0  0  0  0
  6 15  1  0  0  0  0
  7  8  1  0  0  0  0
  7 14  1  0  0  0  0
  8 13  1  0  0  0  0
  8 17  1  0  0  0  0
  8 21  1  0  0  0  0
  9 10  1  0  0  0  0
  9 16  1  0  0  0  0
 10 12  1  0  0  0  0
 10 22  1  0  0  0  0
 11 14  1  0  0  0  0
 13 18  2  0  0  0  0
 13 20  1  0  0  0  0
 15 18  1  0  0  0  0
 16 25  1  0  0  0  0
 17 24  1  0  0  0  0
 20 23  1  0  0  0  0
 23 24  1  0  0  0  0
M  END
> <PUBCHEM_COMPOUND_ID_TYPE>
0

> <PUBCHEM_TOTAL_CHARGE>
0

> <PUBCHEM_SUBSTANCE_ID>
176265325

> <PUBCHEM_SUBSTANCE_VERSION>
1

> <PUBCHEM_EXT_DATASOURCE_NAME>
2331

> <PUBCHEM_EXT_DATASOURCE_REGID>
1714658

> <PUBCHEM_SUBSTANCE_COMMENT>
MolecularFormula:  C22H31NO2
MolecularWeight:  341.49
SubstanceCreateDate:  2006-10-13 14:30:12.0
SubstanceLastUpdateDate:  2008-05-21 10:10:10.0

> <PUBCHEM_SUBSTANCE_SYNONYM>
1434-54-4
Pregn-5-ene-16-carbonitrile, 3-hydroxy-20-oxo-, (3.beta.,16.alpha.)-

> <PUBCHEM_GENERIC_REGISTRY_NAME>
1434-54-4

> <PUBCHEM_XREF_EXT_ID>
1714658

> <PUBCHEM_EXT_DATASOURCE_URL>
http://iaspub.epa.gov/sor_internet/registry/substreg/

> <PUBCHEM_EXT_SUBSTANCE_URL>
http://iaspub.epa.gov/sor_internet/registry/substreg/searchandretrieve/advancedsearch/externalSearch.do?p_type=SRSITN&p_value=1714658

> <PUBCHEM_CID_ASSOCIATIONS>
5225515  1

$$$$
187051836
  -OEChem-04041605452D

 57 61  0     1  0  0  0  0  0999 V2000
    0.0000    0.0000    0.0000 S   0  0  0  0  0  0  0  0  0  0  0  0
    0.0000    0.0000    0.0000 S   0  0  0  0  0  0  0  0  0  0  0  0
    0.0000    0.0000    0.0000 O   0  0  0  0  0  0  0  0  0  0  0  0
    0.0000    0.0000    0.0000 O   0  0  0  0  0  0  0  0  0  0  0  0
    0.0000    0.0000    0.0000 O   0  0  0  0  0  0  0  0  0  0  0  0
    0.0000    0.0000    0.0000 O   0  0  0  0  0  0  0  0  0  0  0  0
    0.0000    0.0000    0.0000 O   0  0  0  0  0  0  0  0  0  0  0  0
    0.0000    0.0000    0.0000 N   0  0  0  0  0  0  0  0  0  0  0  0
    0.0000    0.0000    0.0000 N   0  0  0  0  0  0  0  0  0  0  0  0
    0.0000    0.0000    0.0000 N   0  0  0  0  0  0  0  0  0  0  0  0
    0.0000    0.0000    0.0000 N   0  0  0  0  0  0  0  0  0  0  0  0
    0.0000    0.0000    0.0000 N   0  0  0  0  0  0  0  0  0  0  0  0
    0.0000    0.0000    0.0000 N   0  0  0  0  0  0  0  0  0  0  0  0
    0.0000    0.0000    0.0000 N   0  0  0  0  0  0  0  0  0  0  0  0
    0.0000    0.0000    0.0000 C   0  0  2  0  0  0  0  0  0  0  0  0
    0.0000    0.0000    0.0000 C   0  0  2  0  0  0  0  0  0  0  0  0
    0.0000    0.0000    0.0000 C   0  0  0  0  0  0  0  0  0  0  0  0
    0.0000    0.0000    0.0000 C   0  0  2  0  0  0  0  0  0  0  0  0
    0.0000    0.0000    0.0000 C   0  0  0  0  0  0  0  0  0  0  0  0
    0.0000    0.0000    0.0000 C   0  0  0  0  0  0  0  0  0  0  0  0
    0.0000    0.0000    0.0000 C   0  0  0  0  0  0  0  0  0  0  0  0
    0.0000    0.0000    0.0000 C   0  0  0  0  0  0  0  0  0  0  0  0
    0.0000    0.0000    0.0000 C   0  0  0  0  0  0  0  0  0  0  0  0
    0.0000    0.0000    0.0000 C   0  0  0  0  0  0  0  0  0  0  0  0
    0.0000    0.0000    0.0000 C   0  0  0  0  0  0  0  0  0  0  0  0
    0.0000    0.0000    0.0000 C   0  0  0  0  0  0  0  0  0  0  0  0
    0.0000    0.0000    0.0000 C   0  0  0  0  0  0  0  0  0  0  0  0
    0.0000    0.0000    0.0000 C   0  0  0  0  0  0  0  0  0  0  0  0
    0.0000    0.0000    0.0000 C   0  0  0  0  0  0  0  0  0  0  0  0
    0.0000    0.0000    0.0000 C   0  0  0  0  0  0  0  0  0  0  0  0
    0.0000    0.0000    0.0000 C   0  0  0  0  0  0  0  0  0  0  0  0
    0.0000    0.0000    0.0000 C   0  0  0  0  0  0  0  0  0  0  0  0
    0.0000    0.0000    0.0000 C   0  0  0  0  0  0  0  0  0  0  0  0
    0.0000    0.0000    0.0000 C   0  0  0  0  0  0  0  0  0  0  0  0
    0.0000    0.0000    0.0000 C   0  0  0  0  0  0  0  0  0  0  0  0
    0.0000    0.0000    0.0000 C   0  0  0  0  0  0  0  0  0  0  0  0
    0.0000    0.0000    0.0000 C   0  0  0  0  0  0  0  0  0  0  0  0
    0.0000    0.0000    0.0000 C   0  0  0  0  0  0  0  0  0  0  0  0
    0.0000    0.0000    0.0000 C   0  0  0  0  0  0  0  0  0  0  0  0
    0.0000    0.0000    0.0000 C   0  0  0  0  0  0  0  0  0  0  0  0
    0.0000    0.0000    0.0000 C   0  0  0  0  0  0  0  0  0  0  0  0
    0.0000    0.0000    0.0000 C   0  0  0  0  0  0  0  0  0  0  0  0
    0.0000    0.0000    0.0000 C   0  0  0  0  0  0  0  0  0  0  0  0
    0.0000    0.0000    0.0000 C   0  0  0  0  0  0  0  0  0  0  0  0
    0.0000    0.0000    0.0000 C   0  0  0  0  0  0  0  0  0  0  0  0
    0.0000    0.0000    0.0000 C   0  0  0  0  0  0  0  0  0  0  0  0
    0.0000    0.0000    0.0000 C   0  0  0  0  0  0  0  0  0  0  0  0
    0.0000    0.0000    0.0000 C   0  0  0  0  0  0  0  0  0  0  0  0
    0.0000    0.0000    0.0000 C   0  0  0  0  0  0  0  0  0  0  0  0
    0.0000    0.0000    0.0000 C   0  0  0  0  0  0  0  0  0  0  0  0
    0.0000    0.0000    0.0000 C   0  0  0  0  0  0  0  0  0  0  0  0
    0.0000    0.0000    0.0000 C   0  0  0  0  0  0  0  0  0  0  0  0
    0.0000    0.0000    0.0000 C   0  0  0  0  0  0  0  0  0  0  0  0
    0.0000    0.0000    0.0000 C   0  0  0  0  0  0  0  0  0  0  0  0
    0.0000    0.0000    0.0000 H   0  0  0  0  0  0  0  0  0  0  0  0
    0.0000    0.0000    0.0000 H   0  0  0  0  0  0  0  0  0  0  0  0
    0.0000    0.0000    0.0000 H   0  0  0  0  0  0  0  0  0  0  0  0
  1 33  1  0  0  0  0
  1 34  1  0  0  0  0
  2 50  1  0  0  0  0
  2 54  1  0  0  0  0
  3 17  2  0  0  0  0
  4 22  2  0  0  0  0
  5 30  1  0  0  0  0
  5 48  1  0  0  0  0
  6 30  2  0  0  0  0
  7 46  1  0  0  0  0
  7 47  1  0  0  0  0
  8 16  1  0  0  0  0
  8 17  1  0  0  0  0
  9 15  1  0  0  0  0
  9 22  1  0  0  0  0
 10 22  1  0  0  0  0
 10 28  1  0  0  0  0
 10 35  1  0  0  0  0
 11 18  1  0  0  0  0
 11 30  1  0  0  0  0
 12 26  1  0  0  0  0
 12 38  1  0  0  0  0
 12 39  1  0  0  0  0
 13 27  1  0  0  0  0
 13 33  2  0  0  0  0
 14 53  1  0  0  0  0
 14 54  2  0  0  0  0
 15 17  1  0  0  0  0
 15 20  1  0  0  0  0
 15 55  1  0  0  0  0
 16 19  1  0  0  0  0
 16 21  1  0  0  0  0
 16 56  1  0  0  0  0
 18 23  1  0  0  0  0
 18 25  1  0  0  0  0
 18 57  1  0  0  0  0
 19 23  1  0  0  0  0
 20 26  1  0  0  0  0
 21 24  1  0  0  0  0
 24 31  2  0  0  0  0
 24 32  1  0  0  0  0
 25 29  1  0  0  0  0
 27 28  1  0  0  0  0
 27 34  2  0  0  0  0
 29 36  2  0  0  0  0
 29 37  1  0  0  0  0
 31 40  1  0  0  0  0
 32 41  2  0  0  0  0
 33 42  1  0  0  0  0
 36 44  1  0  0  0  0
 37 45  2  0  0  0  0
 38 46  1  0  0  0  0
 39 47  1  0  0  0  0
 40 43  2  0  0  0  0
 41 43  1  0  0  0  0
 42 51  1  0  0  0  0
 42 52  1  0  0  0  0
 44 49  2  0  0  0  0
 45 49  1  0  0  0  0
 48 50  1  0  0  0  0
 50 53  2  0  0  0  0
M  END
> <PUBCHEM_COMPOUND_ID_TYPE>
0

> <PUBCHEM_TOTAL_CHARGE>
0

> <PUBCHEM_SUBSTANCE_ID>
187051836

> <PUBCHEM_SUBSTANCE_VERSION>
1

> <PUBCHEM_EXT_DATASOURCE_NAME>
IUPHAR-DB

> <PUBCHEM_EXT_DATASOURCE_REGID>
7535

> <PUBCHEM_SUBSTANCE_SYNONYM>
1,3-thiazol-5-ylmethyl N-[(2R,5R)-5-[[(2S)-2-[[methyl-[(2-propan-2-yl-1,3-thiazol-4-yl)methyl]carbamoyl]amino]-4-morpholin-4-ylbutanoyl]amino]-1,6-diphenylhexan-2-yl]carbamate
GS-9350
GTPL7535
cobicistat

> <PUBCHEM_XREF_EXT_ID>
7535

> <PUBCHEM_PUBMED_ID>
20043009
22850510
24900196

> <PUBCHEM_EXT_DATASOURCE_URL>
http://www.guidetopharmacology.org

> <PUBCHEM_EXT_SUBSTANCE_URL>
http://www.guidetopharmacology.org/GRAC/LigandDisplayForward?ligandId=7535

> <PUBCHEM_CID_ASSOCIATIONS>
25151504  1

$$$$
194945367
  -OEChem-04041605452D

 54 58  0     1  0  0  0  0  0999 V2000
   -7.5816   -2.5831    0.0000 S   0  0  0  0  0  0  0  0  0  0  0  0
    5.4968   -1.2555    0.0000 S   0  0  0  0  0  0  0  0  0  0  0  0
   -4.5450   -0.3536    0.0000 O   0  0  0  0  0  0  0  0  0  0  0  0
   -2.4016   -2.4161    0.0000 O   0  0  0  0  0  0  0  0  0  0  0  0
    3.3142   -1.5911    0.0000 O   0  0  0  0  0  0  0  0  0  0  0  0
   -3.8305    2.5340    0.0000 O   0  0  0  0  0  0  0  0  0  0  0  0
    2.5997   -0.3536    0.0000 O   0  0  0  0  0  0  0  0  0  0  0  0
   -5.2595   -1.5911    0.0000 N   0  0  0  0  0  0  0  0  0  0  0  0
   -7.4421   -1.2555    0.0000 N   0  0  0  0  0  0  0  0  0  0  0  0
   -3.8305   -1.5911    0.0000 N   0  0  0  0  0  0  0  0  0  0  0  0
   -1.6871   -1.1786    0.0000 N   0  0  0  0  0  0  0  0  0  0  0  0
   -3.8305    0.8839    0.0000 N   0  0  0  0  0  0  0  0  0  0  0  0
    1.8853   -1.5911    0.0000 N   0  0  0  0  0  0  0  0  0  0  0  0
    5.6363   -2.5831    0.0000 N   0  0  0  0  0  0  0  0  0  0  0  0
   -6.6884   -1.5911    0.0000 C   0  0  0  0  0  0  0  0  0  0  0  0
   -3.1160   -1.1786    0.0000 C   0  0  3  0  0  0  0  0  0  0  0  0
   -7.9941   -1.8686    0.0000 C   0  0  0  0  0  0  0  0  0  0  0  0
   -4.5450   -1.1786    0.0000 C   0  0  0  0  0  0  0  0  0  0  0  0
   -2.4016   -1.5911    0.0000 C   0  0  0  0  0  0  0  0  0  0  0  0
   -5.9739   -1.1786    0.0000 C   0  0  0  0  0  0  0  0  0  0  0  0
   -6.7746   -2.4116    0.0000 C   0  0  0  0  0  0  0  0  0  0  0  0
   -0.9726   -1.5911    0.0000 C   0  0  3  0  0  0  0  0  0  0  0  0
   -8.8146   -1.7824    0.0000 C   0  0  0  0  0  0  0  0  0  0  0  0
   -3.1160   -0.3536    0.0000 C   0  0  0  0  0  0  0  0  0  0  0  0
   -0.9726   -2.4161    0.0000 C   0  0  0  0  0  0  0  0  0  0  0  0
   -0.2582   -1.1786    0.0000 C   0  0  0  0  0  0  0  0  0  0  0  0
    1.1708   -1.1786    0.0000 C   0  0  3  0  0  0  0  0  0  0  0  0
   -0.2582   -2.8286    0.0000 C   0  0  0  0  0  0  0  0  0  0  0  0
   -3.8305    0.0589    0.0000 C   0  0  0  0  0  0  0  0  0  0  0  0
    0.4563   -1.5911    0.0000 C   0  0  0  0  0  0  0  0  0  0  0  0
   -5.2595   -2.4161    0.0000 C   0  0  0  0  0  0  0  0  0  0  0  0
    1.1708   -0.3536    0.0000 C   0  0  0  0  0  0  0  0  0  0  0  0
    0.4563    0.0589    0.0000 C   0  0  0  0  0  0  0  0  0  0  0  0
    2.5997   -1.1786    0.0000 C   0  0  0  0  0  0  0  0  0  0  0  0
   -0.2582   -3.6536    0.0000 C   0  0  0  0  0  0  0  0  0  0  0  0
    0.4563   -2.4160    0.0000 C   0  0  0  0  0  0  0  0  0  0  0  0
   -9.2995   -2.4498    0.0000 C   0  0  0  0  0  0  0  0  0  0  0  0
   -9.1501   -1.0287    0.0000 C   0  0  0  0  0  0  0  0  0  0  0  0
   -3.1160    1.2964    0.0000 C   0  0  0  0  0  0  0  0  0  0  0  0
   -4.5450    1.2964    0.0000 C   0  0  0  0  0  0  0  0  0  0  0  0
    0.4563    0.8840    0.0000 C   0  0  0  0  0  0  0  0  0  0  0  0
   -0.2582   -0.3536    0.0000 C   0  0  0  0  0  0  0  0  0  0  0  0
    4.7431   -1.5911    0.0000 C   0  0  0  0  0  0  0  0  0  0  0  0
    0.4563   -4.0661    0.0000 C   0  0  0  0  0  0  0  0  0  0  0  0
    1.1708   -2.8285    0.0000 C   0  0  0  0  0  0  0  0  0  0  0  0
    4.0287   -1.1786    0.0000 C   0  0  0  0  0  0  0  0  0  0  0  0
   -3.1160    2.1215    0.0000 C   0  0  0  0  0  0  0  0  0  0  0  0
   -4.5450    2.1215    0.0000 C   0  0  0  0  0  0  0  0  0  0  0  0
    1.1708   -3.6536    0.0000 C   0  0  0  0  0  0  0  0  0  0  0  0
   -0.2581    1.2965    0.0000 C   0  0  0  0  0  0  0  0  0  0  0  0
   -0.9726    0.0589    0.0000 C   0  0  0  0  0  0  0  0  0  0  0  0
    4.8294   -2.4116    0.0000 C   0  0  0  0  0  0  0  0  0  0  0  0
   -0.9726    0.8839    0.0000 C   0  0  0  0  0  0  0  0  0  0  0  0
    6.0488   -1.8686    0.0000 C   0  0  0  0  0  0  0  0  0  0  0  0
  1 17  1  0  0  0  0
  1 21  1  0  0  0  0
  2 43  1  0  0  0  0
  2 54  1  0  0  0  0
  3 18  2  0  0  0  0
  4 19  2  0  0  0  0
  5 34  1  0  0  0  0
  5 46  1  0  0  0  0
  6 47  1  0  0  0  0
  6 48  1  0  0  0  0
  7 34  2  0  0  0  0
  8 18  1  0  0  0  0
  8 20  1  0  0  0  0
  8 31  1  0  0  0  0
  9 15  1  0  0  0  0
  9 17  2  0  0  0  0
 16 10  1  1  0  0  0
 10 18  1  0  0  0  0
 11 19  1  0  0  0  0
 22 11  1  6  0  0  0
 12 29  1  0  0  0  0
 12 39  1  0  0  0  0
 12 40  1  0  0  0  0
 27 13  1  6  0  0  0
 13 34  1  0  0  0  0
 14 52  1  0  0  0  0
 14 54  2  0  0  0  0
 15 20  1  0  0  0  0
 15 21  2  0  0  0  0
 16 19  1  0  0  0  0
 16 24  1  0  0  0  0
 17 23  1  0  0  0  0
 22 25  1  0  0  0  0
 22 26  1  0  0  0  0
 23 37  1  0  0  0  0
 23 38  1  0  0  0  0
 24 29  1  0  0  0  0
 25 28  1  0  0  0  0
 26 30  1  0  0  0  0
 27 30  1  0  0  0  0
 27 32  1  0  0  0  0
 28 35  2  0  0  0  0
 28 36  1  0  0  0  0
 32 33  1  0  0  0  0
 33 41  2  0  0  0  0
 33 42  1  0  0  0  0
 35 44  1  0  0  0  0
 36 45  2  0  0  0  0
 39 47  1  0  0  0  0
 40 48  1  0  0  0  0
 41 50  1  0  0  0  0
 42 51  2  0  0  0  0
 43 46  1  0  0  0  0
 43 52  2  0  0  0  0
 44 49  2  0  0  0  0
 45 49  1  0  0  0  0
 50 53  2  0  0  0  0
 51 53  1  0  0  0  0
M  END
> <PUBCHEM_COMPOUND_ID_TYPE>
0

> <PUBCHEM_TOTAL_CHARGE>
0

> <PUBCHEM_SUBSTANCE_ID>
194945367

> <PUBCHEM_SUBSTANCE_VERSION>
2

> <PUBCHEM_EXT_DATASOURCE_NAME>
BindingDB

> <PUBCHEM_EXT_DATASOURCE_REGID>
50447471

> <PUBCHEM_SUBSTANCE_SYNONYM>
BDBM50447471
CHEBI:72291
COBICISTAT

> <PUBCHEM_XREF_EXT_ID>
50447471

> <PUBCHEM_EXT_DATASOURCE_URL>
http://www.bindingDB.org

> <PUBCHEM_EXT_SUBSTANCE_URL>
http://www.bindingdb.org/bind/chemsearch/marvin/MolStructure.jsp?monomerid=50447471

> <PUBCHEM_CID_ASSOCIATIONS>
25151504  1

> <PUBCHEM_COORDINATE_TYPE>
1
3

> <PUBCHEM_BONDANNOTATIONS>
16  10  5
22  11  6
27  13  6

$$$$
198993543
  -OEChem-04041605452D

 58 61  0     1  0  0  0  0  0999 V2000
   -5.9563   -2.0819    0.0000 S   0  0  0  0  0  0  0  0  0  0  0  0
    7.1221   -0.7543    0.0000 S   0  0  0  0  0  0  0  0  0  0  0  0
   -2.9197    0.1476    0.0000 O   0  0  0  0  0  0  0  0  0  0  0  0
   -0.7762   -1.9149    0.0000 O   0  0  0  0  0  0  0  0  0  0  0  0
    4.9395   -1.0899    0.0000 O   0  0  0  0  0  0  0  0  0  0  0  0
   -0.7762    3.0351    0.0000 O   0  0  0  0  0  0  0  0  0  0  0  0
    4.2251    0.1476    0.0000 O   0  0  0  0  0  0  0  0  0  0  0  0
    4.0694    3.5649    0.0000 O   0  0  0  0  0  0  0  0  0  0  0  0
    3.3550    2.3274    0.0000 O   0  0  0  0  0  0  0  0  0  0  0  0
   -3.6341   -1.0899    0.0000 N   0  0  0  0  0  0  0  0  0  0  0  0
   -5.8167   -0.7543    0.0000 N   0  0  0  0  0  0  0  0  0  0  0  0
   -2.2052   -1.0899    0.0000 N   0  0  0  0  0  0  0  0  0  0  0  0
   -0.0618   -0.6774    0.0000 N   0  0  0  0  0  0  0  0  0  0  0  0
   -0.7762    1.3851    0.0000 N   0  0  0  0  0  0  0  0  0  0  0  0
    3.5106   -1.0899    0.0000 N   0  0  0  0  0  0  0  0  0  0  0  0
    7.2617   -2.0819    0.0000 N   0  0  0  0  0  0  0  0  0  0  0  0
   -5.0631   -1.0899    0.0000 C   0  0  0  0  0  0  0  0  0  0  0  0
   -1.4907   -0.6774    0.0000 C   0  0  3  0  0  0  0  0  0  0  0  0
   -6.3688   -1.3674    0.0000 C   0  0  0  0  0  0  0  0  0  0  0  0
   -2.9197   -0.6774    0.0000 C   0  0  0  0  0  0  0  0  0  0  0  0
   -0.7762   -1.0899    0.0000 C   0  0  0  0  0  0  0  0  0  0  0  0
   -4.3486   -0.6774    0.0000 C   0  0  0  0  0  0  0  0  0  0  0  0
   -5.1493   -1.9103    0.0000 C   0  0  0  0  0  0  0  0  0  0  0  0
    0.6527   -1.0899    0.0000 C   0  0  3  0  0  0  0  0  0  0  0  0
   -7.1893   -1.2812    0.0000 C   0  0  0  0  0  0  0  0  0  0  0  0
   -1.4907    0.1476    0.0000 C   0  0  0  0  0  0  0  0  0  0  0  0
    0.6527   -1.9149    0.0000 C   0  0  0  0  0  0  0  0  0  0  0  0
    1.3672   -0.6774    0.0000 C   0  0  0  0  0  0  0  0  0  0  0  0
    2.7961   -0.6774    0.0000 C   0  0  3  0  0  0  0  0  0  0  0  0
    1.3672   -2.3274    0.0000 C   0  0  0  0  0  0  0  0  0  0  0  0
   -0.7762    0.5601    0.0000 C   0  0  0  0  0  0  0  0  0  0  0  0
    2.0816   -1.0899    0.0000 C   0  0  0  0  0  0  0  0  0  0  0  0
   -3.6341   -1.9149    0.0000 C   0  0  0  0  0  0  0  0  0  0  0  0
    2.7961    0.1476    0.0000 C   0  0  0  0  0  0  0  0  0  0  0  0
    2.0816    0.5601    0.0000 C   0  0  0  0  0  0  0  0  0  0  0  0
   -7.5248   -0.5275    0.0000 C   0  0  0  0  0  0  0  0  0  0  0  0
   -7.6742   -1.9486    0.0000 C   0  0  0  0  0  0  0  0  0  0  0  0
    4.2251   -0.6774    0.0000 C   0  0  0  0  0  0  0  0  0  0  0  0
    2.0816   -1.9149    0.0000 C   0  0  0  0  0  0  0  0  0  0  0  0
    1.3672   -3.1524    0.0000 C   0  0  0  0  0  0  0  0  0  0  0  0
   -1.4907    1.7976    0.0000 C   0  0  0  0  0  0  0  0  0  0  0  0
   -0.0618    1.7976    0.0000 C   0  0  0  0  0  0  0  0  0  0  0  0
    1.3672    0.1476    0.0000 C   0  0  0  0  0  0  0  0  0  0  0  0
    2.0816    1.3851    0.0000 C   0  0  0  0  0  0  0  0  0  0  0  0
    2.7961   -2.3274    0.0000 C   0  0  0  0  0  0  0  0  0  0  0  0
    2.0816   -3.5649    0.0000 C   0  0  0  0  0  0  0  0  0  0  0  0
    6.3685   -1.0899    0.0000 C   0  0  0  0  0  0  0  0  0  0  0  0
    5.6540   -0.6774    0.0000 C   0  0  0  0  0  0  0  0  0  0  0  0
   -1.4907    2.6226    0.0000 C   0  0  0  0  0  0  0  0  0  0  0  0
   -0.0618    2.6226    0.0000 C   0  0  0  0  0  0  0  0  0  0  0  0
    2.7961   -3.1524    0.0000 C   0  0  0  0  0  0  0  0  0  0  0  0
    0.6527    0.5601    0.0000 C   0  0  0  0  0  0  0  0  0  0  0  0
    1.3672    1.7976    0.0000 C   0  0  0  0  0  0  0  0  0  0  0  0
    6.4547   -1.9103    0.0000 C   0  0  0  0  0  0  0  0  0  0  0  0
    0.6527    1.3851    0.0000 C   0  0  0  0  0  0  0  0  0  0  0  0
    7.6742   -1.3674    0.0000 C   0  0  0  0  0  0  0  0  0  0  0  0
    4.0694    2.7399    0.0000 C   0  0  0  0  0  0  0  0  0  0  0  0
    4.7839    2.3274    0.0000 H   0  0  0  0  0  0  0  0  0  0  0  0
  1 19  1  0  0  0  0
  1 23  1  0  0  0  0
  2 47  1  0  0  0  0
  2 56  1  0  0  0  0
  3 20  2  0  0  0  0
  4 21  2  0  0  0  0
  5 38  1  0  0  0  0
  5 48  1  0  0  0  0
  6 49  1  0  0  0  0
  6 50  1  0  0  0  0
  7 38  2  0  0  0  0
  8 57  2  0  0  0  0
  9 57  1  0  0  0  0
 10 20  1  0  0  0  0
 10 22  1  0  0  0  0
 10 33  1  0  0  0  0
 11 17  1  0  0  0  0
 11 19  2  0  0  0  0
 12 18  1  0  0  0  0
 12 20  1  0  0  0  0
 13 21  1  0  0  0  0
 13 24  1  0  0  0  0
 14 31  1  0  0  0  0
 14 41  1  0  0  0  0
 14 42  1  0  0  0  0
 15 29  1  0  0  0  0
 15 38  1  0  0  0  0
 16 54  1  0  0  0  0
 16 56  2  0  0  0  0
 17 22  1  0  0  0  0
 17 23  2  0  0  0  0
 18 21  1  0  0  0  0
 18 26  1  1  0  0  0
 19 25  1  0  0  0  0
 24 27  1  6  0  0  0
 24 28  1  0  0  0  0
 25 36  1  0  0  0  0
 25 37  1  0  0  0  0
 26 31  1  0  0  0  0
 27 30  1  0  0  0  0
 28 32  1  0  0  0  0
 29 32  1  0  0  0  0
 29 34  1  6  0  0  0
 30 39  2  0  0  0  0
 30 40  1  0  0  0  0
 34 35  1  0  0  0  0
 35 43  2  0  0  0  0
 35 44  1  0  0  0  0
 39 45  1  0  0  0  0
 40 46  2  0  0  0  0
 41 49  1  0  0  0  0
 42 50  1  0  0  0  0
 43 52  1  0  0  0  0
 44 53  2  0  0  0  0
 45 51  2  0  0  0  0
 46 51  1  0  0  0  0
 47 48  1  0  0  0  0
 47 54  2  0  0  0  0
 52 55  2  0  0  0  0
 53 55  1  0  0  0  0
 57 58  1  0  0  0  0
M  END
> <PUBCHEM_COMPOUND_ID_TYPE>
0

> <PUBCHEM_TOTAL_CHARGE>
0

> <PUBCHEM_SUBSTANCE_ID>
198993543

> <PUBCHEM_SUBSTANCE_VERSION>
2

> <PUBCHEM_EXT_DATASOURCE_NAME>
Alsachim

> <PUBCHEM_EXT_DATASOURCE_REGID>
3481

> <PUBCHEM_SUBSTANCE_COMMENT>
Cobicistat formate salt

> <PUBCHEM_SUBSTANCE_SYNONYM>
GS 9350

> <PUBCHEM_XREF_EXT_ID>
3481

> <PUBCHEM_EXT_DATASOURCE_URL>
http://www.alsachim.com

> <PUBCHEM_EXT_SUBSTANCE_URL>
http://www.alsachim.com/product-C4773-glo.bal-view.html

> <PUBCHEM_CID_ASSOCIATIONS>
76974523  1
284  2
25151504  2

> <PUBCHEM_COORDINATE_TYPE>
1
3

> <PUBCHEM_BONDANNOTATIONS>
18  26  5
24  27  6
29  34  6

$$$$
204380542
  -OEChem-04041605452D

 10  9  0     1  0  0  0  0  0999 V2000
    3.3809   -1.1270    0.0000 O   0  0  0  0  0  0  0  0  0  0  0  0
    2.6664    0.1105    0.0000 N   0  0  0  0  0  0  0  0  0  0  0  0
    1.9520   -1.1270    0.0000 C   0  0  3  0  0  0  0  0  0  0  0  0
    2.6664   -0.7145    0.0000 C   0  0  0  0  0  0  0  0  0  0  0  0
    1.9520   -1.9520    0.0000 C   0  0  0  0  0  0  0  0  0  0  0  0
    1.2375   -0.7145    0.0000 C   0  0  0  0  0  0  0  0  0  0  0  0
    1.2375    0.1105    0.0000 C   0  0  0  0  0  0  0  0  0  0  0  0
    2.6664   -2.3645    0.0000 C   0  0  0  0  0  0  0  0  0  0  0  0
    1.2375   -2.3645    0.0000 C   0  0  0  0  0  0  0  0  0  0  0  0
    0.5230    0.5230    0.0000 C   0  0  0  0  0  0  0  0  0  0  0  0
  1  4  2  0  0  0  0
  2  4  1  0  0  0  0
  3  4  1  0  0  0  0
  3  5  1  0  0  0  0
  3  6  1  0  0  0  0
  5  8  1  0  0  0  0
  5  9  1  0  0  0  0
  6  7  1  0  0  0  0
  7 10  2  0  0  0  0
M  END
> <PUBCHEM_COMPOUND_ID_TYPE>
0

> <PUBCHEM_TOTAL_CHARGE>
0

> <PUBCHEM_SUBSTANCE_ID>
204380542

> <PUBCHEM_SUBSTANCE_VERSION>
3

> <PUBCHEM_EXT_DATASOURCE_NAME>
Tractus

> <PUBCHEM_EXT_DATASOURCE_REGID>
TX-017412

> <PUBCHEM_SUBSTANCE_SYNONYM>
299-78-5
TX-017412
allylisopropylacetamide

> <PUBCHEM_GENERIC_REGISTRY_NAME>
299-78-5

> <PUBCHEM_XREF_EXT_ID>
TX-017412

> <PUBCHEM_EXT_DATASOURCE_URL>
http://www.tractuschem.com/productshow/TX-017412.html

> <PUBCHEM_CID_ASSOCIATIONS>
9297  1

> <PUBCHEM_COORDINATE_TYPE>
1
3

$$$$
241059039
  -OEChem-04041605452D

 10  9  0     1  0  0  0  0  0999 V2000
    1.0983    1.2249    0.0000 O   0  0  0  0  0  0  0  0  0  0  0  0
    1.8081   -0.0247    0.0000 N   0  0  0  0  0  0  0  0  0  0  0  0
    0.3470    0.0049    0.0000 C   0  0  3  0  0  0  0  0  0  0  0  0
    1.0983    0.3944    0.0000 C   0  0  0  0  0  0  0  0  0  0  0  0
    0.3569   -0.8136    0.0000 C   0  0  0  0  0  0  0  0  0  0  0  0
   -0.3628    0.4439    0.0000 C   0  0  0  0  0  0  0  0  0  0  0  0
   -1.1003    0.0741    0.0000 C   0  0  0  0  0  0  0  0  0  0  0  0
    1.0469   -1.1932    0.0000 C   0  0  0  0  0  0  0  0  0  0  0  0
   -0.3213   -1.2249    0.0000 C   0  0  0  0  0  0  0  0  0  0  0  0
   -1.8081    0.5151    0.0000 C   0  0  0  0  0  0  0  0  0  0  0  0
  1  4  2  0  0  0  0
  2  4  1  0  0  0  0
  3  4  1  0  0  0  0
  3  5  1  0  0  0  0
  3  6  1  0  0  0  0
  5  8  1  0  0  0  0
  5  9  1  0  0  0  0
  6  7  1  0  0  0  0
  7 10  2  0  0  0  0
M  END
> <PUBCHEM_COMPOUND_ID_TYPE>
0

> <PUBCHEM_TOTAL_CHARGE>
0

> <PUBCHEM_SUBSTANCE_ID>
241059039

> <PUBCHEM_SUBSTANCE_VERSION>
1

> <PUBCHEM_EXT_DATASOURCE_NAME>
814

> <PUBCHEM_EXT_DATASOURCE_REGID>
99068143

> <PUBCHEM_SUBSTANCE_SYNONYM>
299-78-5
Allylisopropylacetamide

> <PUBCHEM_GENERIC_REGISTRY_NAME>
299-78-5

> <PUBCHEM_XREF_EXT_ID>
99068143

> <PUBCHEM_EXT_DATASOURCE_URL>
http://chemmol.com/

> <PUBCHEM_EXT_SUBSTANCE_URL>
http://www.chemmol.com/chemmol/99068143.html

> <PUBCHEM_CID_ASSOCIATIONS>
9297  1

> <PUBCHEM_COORDINATE_TYPE>
1
3

$$$$
249814477
  -OEChem-04041605452D

 60 64  0     1  0  0  0  0  0999 V2000
    0.0000    0.0000    0.0000 S   0  0  0  0  0  0  0  0  0  0  0  0
    0.0000    0.0000    0.0000 S   0  0  0  0  0  0  0  0  0  0  0  0
    0.0000    0.0000    0.0000 O   0  0  0  0  0  0  0  0  0  0  0  0
    0.0000    0.0000    0.0000 O   0  0  0  0  0  0  0  0  0  0  0  0
    0.0000    0.0000    0.0000 O   0  0  0  0  0  0  0  0  0  0  0  0
    0.0000    0.0000    0.0000 O   0  0  0  0  0  0  0  0  0  0  0  0
    0.0000    0.0000    0.0000 O   0  0  0  0  0  0  0  0  0  0  0  0
    0.0000    0.0000    0.0000 N   0  0  0  0  0  0  0  0  0  0  0  0
    0.0000    0.0000    0.0000 N   0  0  0  0  0  0  0  0  0  0  0  0
    0.0000    0.0000    0.0000 N   0  0  0  0  0  0  0  0  0  0  0  0
    0.0000    0.0000    0.0000 N   0  0  0  0  0  0  0  0  0  0  0  0
    0.0000    0.0000    0.0000 N   0  0  0  0  0  0  0  0  0  0  0  0
    0.0000    0.0000    0.0000 N   0  0  0  0  0  0  0  0  0  0  0  0
    0.0000    0.0000    0.0000 N   0  0  0  0  0  0  0  0  0  0  0  0
    0.0000    0.0000    0.0000 C   0  0  2  0  0  0  0  0  0  0  0  0
    0.0000    0.0000    0.0000 C   0  0  0  0  0  0  0  0  0  0  0  0
    0.0000    0.0000    0.0000 C   0  0  2  0  0  0  0  0  0  0  0  0
    0.0000    0.0000    0.0000 C   0  0  0  0  0  0  0  0  0  0  0  0
    0.0000    0.0000    0.0000 C   0  0  0  0  0  0  0  0  0  0  0  0
    0.0000    0.0000    0.0000 C   0  0  0  0  0  0  0  0  0  0  0  0
    0.0000    0.0000    0.0000 C   0  0  2  0  0  0  0  0  0  0  0  0
    0.0000    0.0000    0.0000 C   0  0  0  0  0  0  0  0  0  0  0  0
    0.0000    0.0000    0.0000 C   0  0  0  0  0  0  0  0  0  0  0  0
    0.0000    0.0000    0.0000 C   0  0  0  0  0  0  0  0  0  0  0  0
    0.0000    0.0000    0.0000 C   0  0  0  0  0  0  0  0  0  0  0  0
    0.0000    0.0000    0.0000 C   0  0  0  0  0  0  0  0  0  0  0  0
    0.0000    0.0000    0.0000 C   0  0  0  0  0  0  0  0  0  0  0  0
    0.0000    0.0000    0.0000 C   0  0  0  0  0  0  0  0  0  0  0  0
    0.0000    0.0000    0.0000 C   0  0  0  0  0  0  0  0  0  0  0  0
    0.0000    0.0000    0.0000 C   0  0  0  0  0  0  0  0  0  0  0  0
    0.0000    0.0000    0.0000 C   0  0  0  0  0  0  0  0  0  0  0  0
    0.0000    0.0000    0.0000 C   0  0  0  0  0  0  0  0  0  0  0  0
    0.0000    0.0000    0.0000 C   0  0  0  0  0  0  0  0  0  0  0  0
    0.0000    0.0000    0.0000 C   0  0  0  0  0  0  0  0  0  0  0  0
    0.0000    0.0000    0.0000 C   0  0  0  0  0  0  0  0  0  0  0  0
    0.0000    0.0000    0.0000 C   0  0  0  0  0  0  0  0  0  0  0  0
    0.0000    0.0000    0.0000 C   0  0  0  0  0  0  0  0  0  0  0  0
    0.0000    0.0000    0.0000 C   0  0  0  0  0  0  0  0  0  0  0  0
    0.0000    0.0000    0.0000 C   0  0  0  0  0  0  0  0  0  0  0  0
    0.0000    0.0000    0.0000 C   0  0  0  0  0  0  0  0  0  0  0  0
    0.0000    0.0000    0.0000 C   0  0  0  0  0  0  0  0  0  0  0  0
    0.0000    0.0000    0.0000 C   0  0  0  0  0  0  0  0  0  0  0  0
    0.0000    0.0000    0.0000 C   0  0  0  0  0  0  0  0  0  0  0  0
    0.0000    0.0000    0.0000 C   0  0  0  0  0  0  0  0  0  0  0  0
    0.0000    0.0000    0.0000 C   0  0  0  0  0  0  0  0  0  0  0  0
    0.0000    0.0000    0.0000 C   0  0  0  0  0  0  0  0  0  0  0  0
    0.0000    0.0000    0.0000 C   0  0  0  0  0  0  0  0  0  0  0  0
    0.0000    0.0000    0.0000 C   0  0  0  0  0  0  0  0  0  0  0  0
    0.0000    0.0000    0.0000 C   0  0  0  0  0  0  0  0  0  0  0  0
    0.0000    0.0000    0.0000 C   0  0  0  0  0  0  0  0  0  0  0  0
    0.0000    0.0000    0.0000 C   0  0  0  0  0  0  0  0  0  0  0  0
    0.0000    0.0000    0.0000 C   0  0  0  0  0  0  0  0  0  0  0  0
    0.0000    0.0000    0.0000 C   0  0  0  0  0  0  0  0  0  0  0  0
    0.0000    0.0000    0.0000 C   0  0  0  0  0  0  0  0  0  0  0  0
    0.0000    0.0000    0.0000 H   0  0  0  0  0  0  0  0  0  0  0  0
    0.0000    0.0000    0.0000 H   0  0  0  0  0  0  0  0  0  0  0  0
    0.0000    0.0000    0.0000 H   0  0  0  0  0  0  0  0  0  0  0  0
    0.0000    0.0000    0.0000 H   0  0  0  0  0  0  0  0  0  0  0  0
    0.0000    0.0000    0.0000 H   0  0  0  0  0  0  0  0  0  0  0  0
    0.0000    0.0000    0.0000 H   0  0  0  0  0  0  0  0  0  0  0  0
  1 34  1  0  0  0  0
  1 37  1  0  0  0  0
  2 49  1  0  0  0  0
  2 54  1  0  0  0  0
  3 16  2  0  0  0  0
  4 19  2  0  0  0  0
  5 27  1  0  0  0  0
  5 43  1  0  0  0  0
  6 27  2  0  0  0  0
  7 47  1  0  0  0  0
  7 48  1  0  0  0  0
  8 16  1  0  0  0  0
  8 17  1  0  0  0  0
  8 57  1  0  0  0  0
  9 15  1  0  0  0  0
  9 19  1  0  0  0  0
  9 58  1  0  0  0  0
 10 19  1  0  0  0  0
 10 28  1  0  0  0  0
 10 33  1  0  0  0  0
 11 21  1  0  0  0  0
 11 27  1  0  0  0  0
 11 60  1  0  0  0  0
 12 25  1  0  0  0  0
 12 35  1  0  0  0  0
 12 36  1  0  0  0  0
 13 32  1  0  0  0  0
 13 34  2  0  0  0  0
 14 51  1  0  0  0  0
 14 54  2  0  0  0  0
 15 16  1  0  0  0  0
 15 18  1  0  0  0  0
 15 55  1  0  0  0  0
 17 20  1  0  0  0  0
 17 22  1  0  0  0  0
 17 56  1  0  0  0  0
 18 25  1  0  0  0  0
 20 23  1  0  0  0  0
 21 23  1  0  0  0  0
 21 26  1  0  0  0  0
 21 59  1  0  0  0  0
 22 24  1  0  0  0  0
 24 30  2  0  0  0  0
 24 31  1  0  0  0  0
 26 29  1  0  0  0  0
 28 32  1  0  0  0  0
 29 38  2  0  0  0  0
 29 39  1  0  0  0  0
 30 40  1  0  0  0  0
 31 41  2  0  0  0  0
 32 37  2  0  0  0  0
 34 44  1  0  0  0  0
 35 47  1  0  0  0  0
 36 48  1  0  0  0  0
 38 45  1  0  0  0  0
 39 46  2  0  0  0  0
 40 42  2  0  0  0  0
 41 42  1  0  0  0  0
 43 49  1  0  0  0  0
 44 52  1  0  0  0  0
 44 53  1  0  0  0  0
 45 50  2  0  0  0  0
 46 50  1  0  0  0  0
 49 51  2  0  0  0  0
M  END
> <PUBCHEM_COMPOUND_ID_TYPE>
0

> <PUBCHEM_TOTAL_CHARGE>
0

> <PUBCHEM_SUBSTANCE_ID>
249814477

> <PUBCHEM_SUBSTANCE_VERSION>
1

> <PUBCHEM_EXT_DATASOURCE_NAME>
10643

> <PUBCHEM_EXT_DATASOURCE_REGID>
Cobicistat

> <PUBCHEM_SUBSTANCE_COMMENT>
Cobicistat is a licenced drug for use in the treatment of infection with the human immunodeficiency virus (HIV).
cobicistat is of interest not for its anti-HIV properties, but rather its ability to inhibit liver enzymes that metabolize other medications used to treat HIV, notably elvitegravir, an HIV integrase inhibitor currently under investigation itself. By combining cobicistat with elvitegravir, higher concentrations of elvitgravir are achieved in the body with lower dosing, theoretically enhancing elvitgravir's viral suppression while diminishing its adverse side-effects. In contrast with ritonavir, the only currently approved booster, cobicistat has no anti-HIV activity of its own.
Cobicistat is a component of the four-drug, fixed-dose combination HIV treatment elvitegravir/cobicistat/emtricitabine/tenofovir (known as the "Quad Pill").The Quad Pill was approved by the FDA in August 2012 for use in the United States and is owned by Gilead Sciences.

> <PUBCHEM_SUBSTANCE_SYNONYM>
1004316-88-4
Cobicistat (GS-9350)
GS 9350
GS-9350
UNII-LW2E03M5PG

> <PUBCHEM_GENERIC_REGISTRY_NAME>
1004316-88-4

> <PUBCHEM_XREF_EXT_ID>
Cobicistat

> <PUBCHEM_EXT_DATASOURCE_URL>
http://www.sun-shinechem.com/

> <PUBCHEM_EXT_SUBSTANCE_URL>
http://www.sun-shinechem.com/1004316-88-4.html

> <PUBCHEM_CID_ASSOCIATIONS>
25151504  1

$$$$
252215178
  -OEChem-04041605452D

 54 58  0     1  0  0  0  0  0999 V2000
   -5.9563   -1.8170    0.0000 S   0  0  0  0  0  0  0  0  0  0  0  0
    7.1221   -0.4894    0.0000 S   0  0  0  0  0  0  0  0  0  0  0  0
   -2.9197    0.4125    0.0000 O   0  0  0  0  0  0  0  0  0  0  0  0
   -0.7762   -1.6500    0.0000 O   0  0  0  0  0  0  0  0  0  0  0  0
    4.9395   -0.8250    0.0000 O   0  0  0  0  0  0  0  0  0  0  0  0
   -2.2052    3.3000    0.0000 O   0  0  0  0  0  0  0  0  0  0  0  0
    4.2251    0.4125    0.0000 O   0  0  0  0  0  0  0  0  0  0  0  0
   -3.6341   -0.8250    0.0000 N   0  0  0  0  0  0  0  0  0  0  0  0
   -5.8167   -0.4894    0.0000 N   0  0  0  0  0  0  0  0  0  0  0  0
   -2.2052   -0.8250    0.0000 N   0  0  0  0  0  0  0  0  0  0  0  0
   -0.0618   -0.4125    0.0000 N   0  0  0  0  0  0  0  0  0  0  0  0
   -2.2052    1.6500    0.0000 N   0  0  0  0  0  0  0  0  0  0  0  0
    3.5106   -0.8250    0.0000 N   0  0  0  0  0  0  0  0  0  0  0  0
    7.2617   -1.8170    0.0000 N   0  0  0  0  0  0  0  0  0  0  0  0
   -5.0631   -0.8250    0.0000 C   0  0  0  0  0  0  0  0  0  0  0  0
   -1.4907   -0.4125    0.0000 C   0  0  3  0  0  0  0  0  0  0  0  0
   -6.3688   -1.1025    0.0000 C   0  0  0  0  0  0  0  0  0  0  0  0
   -2.9197   -0.4125    0.0000 C   0  0  0  0  0  0  0  0  0  0  0  0
   -0.7762   -0.8250    0.0000 C   0  0  0  0  0  0  0  0  0  0  0  0
   -4.3486   -0.4125    0.0000 C   0  0  0  0  0  0  0  0  0  0  0  0
   -5.1493   -1.6455    0.0000 C   0  0  0  0  0  0  0  0  0  0  0  0
    0.6527   -0.8250    0.0000 C   0  0  3  0  0  0  0  0  0  0  0  0
   -7.1893   -1.0163    0.0000 C   0  0  0  0  0  0  0  0  0  0  0  0
   -1.4907    0.4125    0.0000 C   0  0  0  0  0  0  0  0  0  0  0  0
    0.6527   -1.6500    0.0000 C   0  0  0  0  0  0  0  0  0  0  0  0
    1.3672   -0.4125    0.0000 C   0  0  0  0  0  0  0  0  0  0  0  0
    2.7961   -0.4125    0.0000 C   0  0  3  0  0  0  0  0  0  0  0  0
    1.3672   -2.0625    0.0000 C   0  0  0  0  0  0  0  0  0  0  0  0
   -2.2052    0.8250    0.0000 C   0  0  0  0  0  0  0  0  0  0  0  0
    2.0816   -0.8250    0.0000 C   0  0  0  0  0  0  0  0  0  0  0  0
   -3.6341   -1.6500    0.0000 C   0  0  0  0  0  0  0  0  0  0  0  0
    2.7961    0.4125    0.0000 C   0  0  0  0  0  0  0  0  0  0  0  0
    2.0816    0.8250    0.0000 C   0  0  0  0  0  0  0  0  0  0  0  0
    4.2251   -0.4125    0.0000 C   0  0  0  0  0  0  0  0  0  0  0  0
    1.3672   -2.8875    0.0000 C   0  0  0  0  0  0  0  0  0  0  0  0
    2.0816   -1.6500    0.0000 C   0  0  0  0  0  0  0  0  0  0  0  0
   -7.5248   -0.2626    0.0000 C   0  0  0  0  0  0  0  0  0  0  0  0
   -7.6742   -1.6837    0.0000 C   0  0  0  0  0  0  0  0  0  0  0  0
   -1.4907    2.0625    0.0000 C   0  0  0  0  0  0  0  0  0  0  0  0
   -2.9197    2.0625    0.0000 C   0  0  0  0  0  0  0  0  0  0  0  0
    1.3672    0.4125    0.0000 C   0  0  0  0  0  0  0  0  0  0  0  0
    2.0816    1.6500    0.0000 C   0  0  0  0  0  0  0  0  0  0  0  0
    6.3685   -0.8250    0.0000 C   0  0  0  0  0  0  0  0  0  0  0  0
    2.0816   -3.3000    0.0000 C   0  0  0  0  0  0  0  0  0  0  0  0
    2.7961   -2.0625    0.0000 C   0  0  0  0  0  0  0  0  0  0  0  0
    5.6540   -0.4125    0.0000 C   0  0  0  0  0  0  0  0  0  0  0  0
   -1.4907    2.8875    0.0000 C   0  0  0  0  0  0  0  0  0  0  0  0
   -2.9197    2.8875    0.0000 C   0  0  0  0  0  0  0  0  0  0  0  0
    2.7961   -2.8875    0.0000 C   0  0  0  0  0  0  0  0  0  0  0  0
    0.6527    0.8250    0.0000 C   0  0  0  0  0  0  0  0  0  0  0  0
    1.3672    2.0625    0.0000 C   0  0  0  0  0  0  0  0  0  0  0  0
    6.4547   -1.6455    0.0000 C   0  0  0  0  0  0  0  0  0  0  0  0
    0.6527    1.6500    0.0000 C   0  0  0  0  0  0  0  0  0  0  0  0
    7.6742   -1.1025    0.0000 C   0  0  0  0  0  0  0  0  0  0  0  0
  1 17  1  0  0  0  0
  1 21  1  0  0  0  0
  2 43  1  0  0  0  0
  2 54  1  0  0  0  0
  3 18  2  0  0  0  0
  4 19  2  0  0  0  0
  5 34  1  0  0  0  0
  5 46  1  0  0  0  0
  6 47  1  0  0  0  0
  6 48  1  0  0  0  0
  7 34  2  0  0  0  0
  8 18  1  0  0  0  0
  8 20  1  0  0  0  0
  8 31  1  0  0  0  0
  9 15  1  0  0  0  0
  9 17  2  0  0  0  0
 10 16  1  0  0  0  0
 10 18  1  0  0  0  0
 11 19  1  0  0  0  0
 11 22  1  0  0  0  0
 12 29  1  0  0  0  0
 12 39  1  0  0  0  0
 12 40  1  0  0  0  0
 13 27  1  0  0  0  0
 13 34  1  0  0  0  0
 14 52  1  0  0  0  0
 14 54  2  0  0  0  0
 15 20  1  0  0  0  0
 15 21  2  0  0  0  0
 16 19  1  0  0  0  0
 16 24  1  1  0  0  0
 17 23  1  0  0  0  0
 22 25  1  6  0  0  0
 22 26  1  0  0  0  0
 23 37  1  0  0  0  0
 23 38  1  0  0  0  0
 24 29  1  0  0  0  0
 25 28  1  0  0  0  0
 26 30  1  0  0  0  0
 27 30  1  0  0  0  0
 27 32  1  6  0  0  0
 28 35  2  0  0  0  0
 28 36  1  0  0  0  0
 32 33  1  0  0  0  0
 33 41  2  0  0  0  0
 33 42  1  0  0  0  0
 35 44  1  0  0  0  0
 36 45  2  0  0  0  0
 39 47  1  0  0  0  0
 40 48  1  0  0  0  0
 41 50  1  0  0  0  0
 42 51  2  0  0  0  0
 43 46  1  0  0  0  0
 43 52  2  0  0  0  0
 44 49  2  0  0  0  0
 45 49  1  0  0  0  0
 50 53  2  0  0  0  0
 51 53  1  0  0  0  0
M  END
> <PUBCHEM_COMPOUND_ID_TYPE>
0

> <PUBCHEM_TOTAL_CHARGE>
0

> <PUBCHEM_SUBSTANCE_ID>
252215178

> <PUBCHEM_SUBSTANCE_VERSION>
1

> <PUBCHEM_EXT_DATASOURCE_NAME>
11816

> <PUBCHEM_EXT_DATASOURCE_REGID>
RV022503808

> <PUBCHEM_SUBSTANCE_SYNONYM>
1004316-88-4
cobicistat
thiazol-5-ylmethyl ((2R,5R)-5-((S)-2-(3-((2-isopropylthiazol-4-yl)methyl)-3-methylureido)-4-morpholinobutanamido)-1,6-diphenylhexan-2-yl)carbamate

> <PUBCHEM_GENERIC_REGISTRY_NAME>
1004316-88-4

> <PUBCHEM_XREF_EXT_ID>
RV022503808

> <PUBCHEM_EXT_DATASOURCE_URL>
http://www.racechemical.com

> <PUBCHEM_CID_ASSOCIATIONS>
25151504  1

> <PUBCHEM_COORDINATE_TYPE>
1
3

> <PUBCHEM_BONDANNOTATIONS>
16  24  5
22  25  6
27  32  6

$$$$
252356179
  -OEChem-04041605452D

 28 31  0     1  0  0  0  0  0999 V2000
    5.1455    3.2743    0.0000 O   0  0  0  0  0  0  0  0  0  0  0  0
   -2.0409   -2.9347    0.0000 O   0  0  0  0  0  0  0  0  0  0  0  0
    8.8779    0.1903    0.0000 N   0  0  0  0  0  0  0  0  0  0  0  0
    3.3718   -1.0597    0.0000 C   0  0  3  0  0  0  0  0  0  0  0  0
    4.4543   -0.4347    0.0000 C   0  0  3  0  0  0  0  0  0  0  0  0
    2.2892   -0.4347    0.0000 C   0  0  3  0  0  0  0  0  0  0  0  0
    4.4543    0.8153    0.0000 C   0  0  3  0  0  0  0  0  0  0  0  0
    1.2067   -1.0597    0.0000 C   0  0  3  0  0  0  0  0  0  0  0  0
    5.6431    1.2016    0.0000 C   0  0  3  0  0  0  0  0  0  0  0  0
    5.6431   -0.8210    0.0000 C   0  0  0  0  0  0  0  0  0  0  0  0
    2.2892    0.8153    0.0000 C   0  0  0  0  0  0  0  0  0  0  0  0
    3.3718    1.4403    0.0000 C   0  0  0  0  0  0  0  0  0  0  0  0
    3.3718   -2.3097    0.0000 C   0  0  0  0  0  0  0  0  0  0  0  0
    6.3779    0.1903    0.0000 C   0  0  3  0  0  0  0  0  0  0  0  0
    1.2067   -2.3097    0.0000 C   0  0  0  0  0  0  0  0  0  0  0  0
    2.2892   -2.9347    0.0000 C   0  0  0  0  0  0  0  0  0  0  0  0
    0.1242   -0.4347    0.0000 C   0  0  0  0  0  0  0  0  0  0  0  0
    4.4543    2.0653    0.0000 C   0  0  0  0  0  0  0  0  0  0  0  0
    6.0294    2.3904    0.0000 C   0  0  0  0  0  0  0  0  0  0  0  0
    1.2067    0.1903    0.0000 C   0  0  0  0  0  0  0  0  0  0  0  0
    0.1242   -2.9347    0.0000 C   0  0  0  0  0  0  0  0  0  0  0  0
    7.6279    0.1903    0.0000 C   0  0  0  0  0  0  0  0  0  0  0  0
   -0.9584   -1.0597    0.0000 C   0  0  0  0  0  0  0  0  0  0  0  0
   -0.9584   -2.3097    0.0000 C   0  0  3  0  0  0  0  0  0  0  0  0
    7.2521    2.6503    0.0000 C   0  0  0  0  0  0  0  0  0  0  0  0
    3.3718    0.1903    0.0000 H   0  0  0  0  0  0  0  0  0  0  0  0
    4.4543   -1.6847    0.0000 H   0  0  0  0  0  0  0  0  0  0  0  0
    2.2892   -1.6847    0.0000 H   0  0  0  0  0  0  0  0  0  0  0  0
  1 19  2  0  0  0  0
  2 24  1  0  0  0  0
  3 22  3  0  0  0  0
  4  5  1  0  0  0  0
  4  6  1  0  0  0  0
  4 13  1  0  0  0  0
  4 26  1  1  0  0  0
  5  7  1  0  0  0  0
  5 10  1  0  0  0  0
  5 27  1  6  0  0  0
  6  8  1  0  0  0  0
  6 11  1  0  0  0  0
  6 28  1  6  0  0  0
  7  9  1  0  0  0  0
  7 12  1  0  0  0  0
  7 18  1  1  0  0  0
  8 15  1  0  0  0  0
  8 17  1  0  0  0  0
  8 20  1  1  0  0  0
  9 14  1  0  0  0  0
  9 19  1  1  0  0  0
 10 14  1  0  0  0  0
 11 12  1  0  0  0  0
 13 16  1  0  0  0  0
 14 22  1  6  0  0  0
 15 16  2  0  0  0  0
 15 21  1  0  0  0  0
 17 23  1  0  0  0  0
 19 25  1  0  0  0  0
 21 24  1  0  0  0  0
 23 24  1  0  0  0  0
M  END
> <PUBCHEM_COMPOUND_ID_TYPE>
0

> <PUBCHEM_TOTAL_CHARGE>
0

> <PUBCHEM_SUBSTANCE_ID>
252356179

> <PUBCHEM_SUBSTANCE_VERSION>
1

> <PUBCHEM_EXT_DATASOURCE_NAME>
11801

> <PUBCHEM_EXT_DATASOURCE_REGID>
MT-58144

> <PUBCHEM_SUBSTANCE_SYNONYM>
1434-54-4
Pregnenolone-16alpha-carbonitrile

> <PUBCHEM_GENERIC_REGISTRY_NAME>
1434-54-4

> <PUBCHEM_XREF_EXT_ID>
MT-58144

> <PUBCHEM_EXT_DATASOURCE_URL>
http://www.ahhchemical.com

> <PUBCHEM_EXT_SUBSTANCE_URL>
http://www.ahhchemical.com/product/MT-58144.html

> <PUBCHEM_CID_ASSOCIATIONS>
21337710  1

> <PUBCHEM_COORDINATE_TYPE>
1
3

> <PUBCHEM_BONDANNOTATIONS>
14  22  6
4  26  5
5  27  6
6  28  6
7  18  5
8  20  5
9  19  5

$$$$
252451833
  -OEChem-04041605452D

 57 61  0     1  0  0  0  0  0999 V2000
    0.0000    0.0000    0.0000 S   0  0  0  0  0  0  0  0  0  0  0  0
    0.0000    0.0000    0.0000 S   0  0  0  0  0  0  0  0  0  0  0  0
    0.0000    0.0000    0.0000 O   0  0  0  0  0  0  0  0  0  0  0  0
    0.0000    0.0000    0.0000 O   0  0  0  0  0  0  0  0  0  0  0  0
    0.0000    0.0000    0.0000 O   0  0  0  0  0  0  0  0  0  0  0  0
    0.0000    0.0000    0.0000 O   0  0  0  0  0  0  0  0  0  0  0  0
    0.0000    0.0000    0.0000 O   0  0  0  0  0  0  0  0  0  0  0  0
    0.0000    0.0000    0.0000 N   0  0  0  0  0  0  0  0  0  0  0  0
    0.0000    0.0000    0.0000 N   0  0  0  0  0  0  0  0  0  0  0  0
    0.0000    0.0000    0.0000 N   0  0  0  0  0  0  0  0  0  0  0  0
    0.0000    0.0000    0.0000 N   0  0  0  0  0  0  0  0  0  0  0  0
    0.0000    0.0000    0.0000 N   0  0  0  0  0  0  0  0  0  0  0  0
    0.0000    0.0000    0.0000 N   0  0  0  0  0  0  0  0  0  0  0  0
    0.0000    0.0000    0.0000 N   0  0  0  0  0  0  0  0  0  0  0  0
    0.0000    0.0000    0.0000 C   0  0  2  0  0  0  0  0  0  0  0  0
    0.0000    0.0000    0.0000 C   0  0  2  0  0  0  0  0  0  0  0  0
    0.0000    0.0000    0.0000 C   0  0  0  0  0  0  0  0  0  0  0  0
    0.0000    0.0000    0.0000 C   0  0  2  0  0  0  0  0  0  0  0  0
    0.0000    0.0000    0.0000 C   0  0  0  0  0  0  0  0  0  0  0  0
    0.0000    0.0000    0.0000 C   0  0  0  0  0  0  0  0  0  0  0  0
    0.0000    0.0000    0.0000 C   0  0  0  0  0  0  0  0  0  0  0  0
    0.0000    0.0000    0.0000 C   0  0  0  0  0  0  0  0  0  0  0  0
    0.0000    0.0000    0.0000 C   0  0  0  0  0  0  0  0  0  0  0  0
    0.0000    0.0000    0.0000 C   0  0  0  0  0  0  0  0  0  0  0  0
    0.0000    0.0000    0.0000 C   0  0  0  0  0  0  0  0  0  0  0  0
    0.0000    0.0000    0.0000 C   0  0  0  0  0  0  0  0  0  0  0  0
    0.0000    0.0000    0.0000 C   0  0  0  0  0  0  0  0  0  0  0  0
    0.0000    0.0000    0.0000 C   0  0  0  0  0  0  0  0  0  0  0  0
    0.0000    0.0000    0.0000 C   0  0  0  0  0  0  0  0  0  0  0  0
    0.0000    0.0000    0.0000 C   0  0  0  0  0  0  0  0  0  0  0  0
    0.0000    0.0000    0.0000 C   0  0  0  0  0  0  0  0  0  0  0  0
    0.0000    0.0000    0.0000 C   0  0  0  0  0  0  0  0  0  0  0  0
    0.0000    0.0000    0.0000 C   0  0  0  0  0  0  0  0  0  0  0  0
    0.0000    0.0000    0.0000 C   0  0  0  0  0  0  0  0  0  0  0  0
    0.0000    0.0000    0.0000 C   0  0  0  0  0  0  0  0  0  0  0  0
    0.0000    0.0000    0.0000 C   0  0  0  0  0  0  0  0  0  0  0  0
    0.0000    0.0000    0.0000 C   0  0  0  0  0  0  0  0  0  0  0  0
    0.0000    0.0000    0.0000 C   0  0  0  0  0  0  0  0  0  0  0  0
    0.0000    0.0000    0.0000 C   0  0  0  0  0  0  0  0  0  0  0  0
    0.0000    0.0000    0.0000 C   0  0  0  0  0  0  0  0  0  0  0  0
    0.0000    0.0000    0.0000 C   0  0  0  0  0  0  0  0  0  0  0  0
    0.0000    0.0000    0.0000 C   0  0  0  0  0  0  0  0  0  0  0  0
    0.0000    0.0000    0.0000 C   0  0  0  0  0  0  0  0  0  0  0  0
    0.0000    0.0000    0.0000 C   0  0  0  0  0  0  0  0  0  0  0  0
    0.0000    0.0000    0.0000 C   0  0  0  0  0  0  0  0  0  0  0  0
    0.0000    0.0000    0.0000 C   0  0  0  0  0  0  0  0  0  0  0  0
    0.0000    0.0000    0.0000 C   0  0  0  0  0  0  0  0  0  0  0  0
    0.0000    0.0000    0.0000 C   0  0  0  0  0  0  0  0  0  0  0  0
    0.0000    0.0000    0.0000 C   0  0  0  0  0  0  0  0  0  0  0  0
    0.0000    0.0000    0.0000 C   0  0  0  0  0  0  0  0  0  0  0  0
    0.0000    0.0000    0.0000 C   0  0  0  0  0  0  0  0  0  0  0  0
    0.0000    0.0000    0.0000 C   0  0  0  0  0  0  0  0  0  0  0  0
    0.0000    0.0000    0.0000 C   0  0  0  0  0  0  0  0  0  0  0  0
    0.0000    0.0000    0.0000 C   0  0  0  0  0  0  0  0  0  0  0  0
    0.0000    0.0000    0.0000 H   0  0  0  0  0  0  0  0  0  0  0  0
    0.0000    0.0000    0.0000 H   0  0  0  0  0  0  0  0  0  0  0  0
    0.0000    0.0000    0.0000 H   0  0  0  0  0  0  0  0  0  0  0  0
  1 33  1  0  0  0  0
  1 34  1  0  0  0  0
  2 50  1  0  0  0  0
  2 54  1  0  0  0  0
  3 17  2  0  0  0  0
  4 22  2  0  0  0  0
  5 30  1  0  0  0  0
  5 48  1  0  0  0  0
  6 30  2  0  0  0  0
  7 46  1  0  0  0  0
  7 47  1  0  0  0  0
  8 16  1  0  0  0  0
  8 17  1  0  0  0  0
  9 15  1  0  0  0  0
  9 22  1  0  0  0  0
 10 22  1  0  0  0  0
 10 28  1  0  0  0  0
 10 35  1  0  0  0  0
 11 18  1  0  0  0  0
 11 30  1  0  0  0  0
 12 26  1  0  0  0  0
 12 38  1  0  0  0  0
 12 39  1  0  0  0  0
 13 27  1  0  0  0  0
 13 33  2  0  0  0  0
 14 53  1  0  0  0  0
 14 54  2  0  0  0  0
 15 17  1  0  0  0  0
 15 20  1  0  0  0  0
 15 55  1  0  0  0  0
 16 19  1  0  0  0  0
 16 21  1  0  0  0  0
 16 56  1  0  0  0  0
 18 23  1  0  0  0  0
 18 25  1  0  0  0  0
 18 57  1  0  0  0  0
 19 23  1  0  0  0  0
 20 26  1  0  0  0  0
 21 24  1  0  0  0  0
 24 31  2  0  0  0  0
 24 32  1  0  0  0  0
 25 29  1  0  0  0  0
 27 28  1  0  0  0  0
 27 34  2  0  0  0  0
 29 36  2  0  0  0  0
 29 37  1  0  0  0  0
 31 40  1  0  0  0  0
 32 41  2  0  0  0  0
 33 42  1  0  0  0  0
 36 44  1  0  0  0  0
 37 45  2  0  0  0  0
 38 46  1  0  0  0  0
 39 47  1  0  0  0  0
 40 43  2  0  0  0  0
 41 43  1  0  0  0  0
 42 51  1  0  0  0  0
 42 52  1  0  0  0  0
 44 49  2  0  0  0  0
 45 49  1  0  0  0  0
 48 50  1  0  0  0  0
 50 53  2  0  0  0  0
M  END
> <PUBCHEM_COMPOUND_ID_TYPE>
0

> <PUBCHEM_TOTAL_CHARGE>
0

> <PUBCHEM_SUBSTANCE_ID>
252451833

> <PUBCHEM_SUBSTANCE_VERSION>
1

> <PUBCHEM_EXT_DATASOURCE_NAME>
5533

> <PUBCHEM_EXT_DATASOURCE_REGID>
AOB87771

> <PUBCHEM_SUBSTANCE_SYNONYM>
1004316-88-4
AOB87771
Cobicistat

> <PUBCHEM_GENERIC_REGISTRY_NAME>
1004316-88-4

> <PUBCHEM_XREF_EXT_ID>
AOB87771

> <PUBCHEM_EXT_DATASOURCE_URL>
http://aobious.com

> <PUBCHEM_CID_ASSOCIATIONS>
25151504  1

$$$$
253658659
  -OEChem-04041605452D

 54 58  0     1  0  0  0  0  0999 V2000
   -5.9563   -1.8170    0.0000 S   0  0  0  0  0  0  0  0  0  0  0  0
    7.1221   -0.4894    0.0000 S   0  0  0  0  0  0  0  0  0  0  0  0
   -2.9197    0.4125    0.0000 O   0  0  0  0  0  0  0  0  0  0  0  0
   -0.7762   -1.6500    0.0000 O   0  0  0  0  0  0  0  0  0  0  0  0
    4.9395   -0.8250    0.0000 O   0  0  0  0  0  0  0  0  0  0  0  0
   -0.7762    3.3000    0.0000 O   0  0  0  0  0  0  0  0  0  0  0  0
    4.2251    0.4125    0.0000 O   0  0  0  0  0  0  0  0  0  0  0  0
   -3.6341   -0.8250    0.0000 N   0  0  0  0  0  0  0  0  0  0  0  0
   -5.8167   -0.4894    0.0000 N   0  0  0  0  0  0  0  0  0  0  0  0
   -2.2052   -0.8250    0.0000 N   0  0  0  0  0  0  0  0  0  0  0  0
   -0.0618   -0.4125    0.0000 N   0  0  0  0  0  0  0  0  0  0  0  0
   -0.7762    1.6500    0.0000 N   0  0  0  0  0  0  0  0  0  0  0  0
    3.5106   -0.8250    0.0000 N   0  0  0  0  0  0  0  0  0  0  0  0
    7.2617   -1.8170    0.0000 N   0  0  0  0  0  0  0  0  0  0  0  0
   -5.0631   -0.8250    0.0000 C   0  0  0  0  0  0  0  0  0  0  0  0
   -1.4907   -0.4125    0.0000 C   0  0  3  0  0  0  0  0  0  0  0  0
   -6.3688   -1.1025    0.0000 C   0  0  0  0  0  0  0  0  0  0  0  0
   -2.9197   -0.4125    0.0000 C   0  0  0  0  0  0  0  0  0  0  0  0
   -0.7762   -0.8250    0.0000 C   0  0  0  0  0  0  0  0  0  0  0  0
   -4.3486   -0.4125    0.0000 C   0  0  0  0  0  0  0  0  0  0  0  0
   -5.1493   -1.6455    0.0000 C   0  0  0  0  0  0  0  0  0  0  0  0
    0.6527   -0.8250    0.0000 C   0  0  3  0  0  0  0  0  0  0  0  0
   -7.1893   -1.0163    0.0000 C   0  0  0  0  0  0  0  0  0  0  0  0
   -1.4907    0.4125    0.0000 C   0  0  0  0  0  0  0  0  0  0  0  0
    0.6527   -1.6500    0.0000 C   0  0  0  0  0  0  0  0  0  0  0  0
    1.3672   -0.4125    0.0000 C   0  0  0  0  0  0  0  0  0  0  0  0
    2.7961   -0.4125    0.0000 C   0  0  3  0  0  0  0  0  0  0  0  0
    1.3672   -2.0625    0.0000 C   0  0  0  0  0  0  0  0  0  0  0  0
   -0.7762    0.8250    0.0000 C   0  0  0  0  0  0  0  0  0  0  0  0
    2.0816   -0.8250    0.0000 C   0  0  0  0  0  0  0  0  0  0  0  0
   -3.6341   -1.6500    0.0000 C   0  0  0  0  0  0  0  0  0  0  0  0
    2.7961    0.4125    0.0000 C   0  0  0  0  0  0  0  0  0  0  0  0
    2.0816    0.8250    0.0000 C   0  0  0  0  0  0  0  0  0  0  0  0
    4.2251   -0.4125    0.0000 C   0  0  0  0  0  0  0  0  0  0  0  0
    2.0816   -1.6500    0.0000 C   0  0  0  0  0  0  0  0  0  0  0  0
    1.3672   -2.8875    0.0000 C   0  0  0  0  0  0  0  0  0  0  0  0
   -7.5248   -0.2626    0.0000 C   0  0  0  0  0  0  0  0  0  0  0  0
   -7.6742   -1.6837    0.0000 C   0  0  0  0  0  0  0  0  0  0  0  0
   -1.4907    2.0625    0.0000 C   0  0  0  0  0  0  0  0  0  0  0  0
   -0.0618    2.0625    0.0000 C   0  0  0  0  0  0  0  0  0  0  0  0
    2.0816    1.6500    0.0000 C   0  0  0  0  0  0  0  0  0  0  0  0
    1.3672    0.4125    0.0000 C   0  0  0  0  0  0  0  0  0  0  0  0
    6.3685   -0.8250    0.0000 C   0  0  0  0  0  0  0  0  0  0  0  0
    2.7961   -2.0625    0.0000 C   0  0  0  0  0  0  0  0  0  0  0  0
    2.0816   -3.3000    0.0000 C   0  0  0  0  0  0  0  0  0  0  0  0
    5.6540   -0.4125    0.0000 C   0  0  0  0  0  0  0  0  0  0  0  0
   -1.4907    2.8875    0.0000 C   0  0  0  0  0  0  0  0  0  0  0  0
   -0.0618    2.8875    0.0000 C   0  0  0  0  0  0  0  0  0  0  0  0
    2.7961   -2.8875    0.0000 C   0  0  0  0  0  0  0  0  0  0  0  0
    1.3672    2.0625    0.0000 C   0  0  0  0  0  0  0  0  0  0  0  0
    0.6527    0.8250    0.0000 C   0  0  0  0  0  0  0  0  0  0  0  0
    6.4547   -1.6455    0.0000 C   0  0  0  0  0  0  0  0  0  0  0  0
    0.6527    1.6500    0.0000 C   0  0  0  0  0  0  0  0  0  0  0  0
    7.6742   -1.1025    0.0000 C   0  0  0  0  0  0  0  0  0  0  0  0
  1 17  1  0  0  0  0
  1 21  1  0  0  0  0
  2 43  1  0  0  0  0
  2 54  1  0  0  0  0
  3 18  2  0  0  0  0
  4 19  2  0  0  0  0
  5 34  1  0  0  0  0
  5 46  1  0  0  0  0
  6 47  1  0  0  0  0
  6 48  1  0  0  0  0
  7 34  2  0  0  0  0
  8 18  1  0  0  0  0
  8 20  1  0  0  0  0
  8 31  1  0  0  0  0
  9 15  1  0  0  0  0
  9 17  2  0  0  0  0
 10 16  1  0  0  0  0
 10 18  1  0  0  0  0
 11 19  1  0  0  0  0
 11 22  1  0  0  0  0
 12 29  1  0  0  0  0
 12 39  1  0  0  0  0
 12 40  1  0  0  0  0
 13 27  1  0  0  0  0
 13 34  1  0  0  0  0
 14 52  1  0  0  0  0
 14 54  2  0  0  0  0
 15 20  1  0  0  0  0
 15 21  2  0  0  0  0
 16 19  1  0  0  0  0
 16 24  1  1  0  0  0
 17 23  1  0  0  0  0
 22 25  1  6  0  0  0
 22 26  1  0  0  0  0
 23 37  1  0  0  0  0
 23 38  1  0  0  0  0
 24 29  1  0  0  0  0
 25 28  1  0  0  0  0
 26 30  1  0  0  0  0
 27 30  1  0  0  0  0
 27 32  1  6  0  0  0
 28 35  2  0  0  0  0
 28 36  1  0  0  0  0
 32 33  1  0  0  0  0
 33 41  2  0  0  0  0
 33 42  1  0  0  0  0
 35 44  1  0  0  0  0
 36 45  2  0  0  0  0
 39 47  1  0  0  0  0
 40 48  1  0  0  0  0
 41 50  1  0  0  0  0
 42 51  2  0  0  0  0
 43 46  1  0  0  0  0
 43 52  2  0  0  0  0
 44 49  2  0  0  0  0
 45 49  1  0  0  0  0
 50 53  2  0  0  0  0
 51 53  1  0  0  0  0
M  END
> <PUBCHEM_COMPOUND_ID_TYPE>
0

> <PUBCHEM_TOTAL_CHARGE>
0

> <PUBCHEM_SUBSTANCE_ID>
253658659

> <PUBCHEM_SUBSTANCE_VERSION>
1

> <PUBCHEM_EXT_DATASOURCE_NAME>
Alsachim

> <PUBCHEM_EXT_DATASOURCE_REGID>
4312

> <PUBCHEM_SUBSTANCE_COMMENT>
Cobicistat

> <PUBCHEM_SUBSTANCE_SYNONYM>
GS 9350

> <PUBCHEM_XREF_EXT_ID>
4312

> <PUBCHEM_EXT_DATASOURCE_URL>
http://www.alsachim.com

> <PUBCHEM_EXT_SUBSTANCE_URL>
http://www.alsachim.com/product-C5632-glo.bal-view.html

> <PUBCHEM_CID_ASSOCIATIONS>
25151504  1

> <PUBCHEM_COORDINATE_TYPE>
1
3

> <PUBCHEM_BONDANNOTATIONS>
16  24  5
22  25  6
27  32  6

$$$$
253658660
  -OEChem-04041605452D

 58 62  0     1  0  0  0  0  0999 V2000
    6.7119   -0.4894    0.0000 S   0  0  0  0  0  0  0  0  0  0  0  0
   -6.3665   -1.8170    0.0000 S   0  0  0  0  0  0  0  0  0  0  0  0
    4.5293   -0.8250    0.0000 O   0  0  0  0  0  0  0  0  0  0  0  0
    3.8148    0.4125    0.0000 O   0  0  0  0  0  0  0  0  0  0  0  0
   -1.1865   -1.6500    0.0000 O   0  0  0  0  0  0  0  0  0  0  0  0
   -3.3299    0.4125    0.0000 O   0  0  0  0  0  0  0  0  0  0  0  0
   -1.1865    3.3000    0.0000 O   0  0  0  0  0  0  0  0  0  0  0  0
    6.8514   -1.8170    0.0000 N   0  0  0  0  0  0  0  0  0  0  0  0
    3.1003   -0.8250    0.0000 N   0  0  0  0  0  0  0  0  0  0  0  0
   -4.0444   -0.8250    0.0000 N   0  0  0  0  0  0  0  0  0  0  0  0
   -6.2270   -0.4894    0.0000 N   0  0  0  0  0  0  0  0  0  0  0  0
   -2.6154   -0.8250    0.0000 N   0  0  0  0  0  0  0  0  0  0  0  0
   -0.4720   -0.4125    0.0000 N   0  0  0  0  0  0  0  0  0  0  0  0
   -1.1865    1.6500    0.0000 N   0  0  0  0  0  0  0  0  0  0  0  0
    5.9582   -0.8250    0.0000 C   0  0  0  0  0  0  0  0  0  0  0  0
    5.2438   -0.4125    0.0000 C   1  0  0  0  0  0  0  0  0  0  0  0
    6.0445   -1.6455    0.0000 C   0  0  0  0  0  0  0  0  0  0  0  0
    7.2639   -1.1025    0.0000 C   0  0  0  0  0  0  0  0  0  0  0  0
    3.8148   -0.4125    0.0000 C   0  0  0  0  0  0  0  0  0  0  0  0
    2.3859   -0.4125    0.0000 C   0  0  3  0  0  0  0  0  0  0  0  0
   -5.4733   -0.8250    0.0000 C   0  0  0  0  0  0  0  0  0  0  0  0
   -1.9010   -0.4125    0.0000 C   0  0  3  0  0  0  0  0  0  0  0  0
   -1.1865   -0.8250    0.0000 C   0  0  0  0  0  0  0  0  0  0  0  0
   -6.7790   -1.1025    0.0000 C   0  0  0  0  0  0  0  0  0  0  0  0
    0.2425   -0.8250    0.0000 C   0  0  3  0  0  0  0  0  0  0  0  0
   -3.3299   -0.4125    0.0000 C   0  0  0  0  0  0  0  0  0  0  0  0
    1.6714   -0.8250    0.0000 C   0  0  0  0  0  0  0  0  0  0  0  0
    2.3859    0.4125    0.0000 C   0  0  0  0  0  0  0  0  0  0  0  0
   -4.7588   -0.4125    0.0000 C   0  0  0  0  0  0  0  0  0  0  0  0
    0.9569   -0.4125    0.0000 C   0  0  0  0  0  0  0  0  0  0  0  0
   -5.5595   -1.6455    0.0000 C   0  0  0  0  0  0  0  0  0  0  0  0
    1.6714    0.8250    0.0000 C   0  0  0  0  0  0  0  0  0  0  0  0
   -7.5995   -1.0163    0.0000 C   0  0  0  0  0  0  0  0  0  0  0  0
   -1.9010    0.4125    0.0000 C   0  0  0  0  0  0  0  0  0  0  0  0
    0.2425   -1.6500    0.0000 C   0  0  0  0  0  0  0  0  0  0  0  0
    0.9569   -2.0625    0.0000 C   0  0  0  0  0  0  0  0  0  0  0  0
   -1.1865    0.8250    0.0000 C   0  0  0  0  0  0  0  0  0  0  0  0
    0.9569    0.4125    0.0000 C   0  0  0  0  0  0  0  0  0  0  0  0
    1.6714    1.6500    0.0000 C   0  0  0  0  0  0  0  0  0  0  0  0
   -4.0444   -1.6500    0.0000 C   0  0  0  0  0  0  0  0  0  0  0  0
    1.6714   -1.6500    0.0000 C   0  0  0  0  0  0  0  0  0  0  0  0
    0.9569   -2.8875    0.0000 C   0  0  0  0  0  0  0  0  0  0  0  0
   -7.9351   -0.2626    0.0000 C   0  0  0  0  0  0  0  0  0  0  0  0
   -8.0844   -1.6837    0.0000 C   0  0  0  0  0  0  0  0  0  0  0  0
    0.2425    0.8250    0.0000 C   0  0  0  0  0  0  0  0  0  0  0  0
    0.9569    2.0625    0.0000 C   0  0  0  0  0  0  0  0  0  0  0  0
   -1.9010    2.0625    0.0000 C   0  0  0  0  0  0  0  0  0  0  0  0
   -0.4720    2.0625    0.0000 C   0  0  0  0  0  0  0  0  0  0  0  0
    0.2425    1.6500    0.0000 C   0  0  0  0  0  0  0  0  0  0  0  0
    2.3859   -2.0625    0.0000 C   0  0  0  0  0  0  0  0  0  0  0  0
    1.6714   -3.3000    0.0000 C   0  0  0  0  0  0  0  0  0  0  0  0
    2.3859   -2.8875    0.0000 C   0  0  0  0  0  0  0  0  0  0  0  0
   -1.9010    2.8875    0.0000 C   0  0  0  0  0  0  0  0  0  0  0  0
   -0.4720    2.8875    0.0000 C   0  0  0  0  0  0  0  0  0  0  0  0
    4.9103    0.3421    0.0000 H   1  0  0  0  0  0  0  0  0  0  0  0
    5.7426    0.2446    0.0000 H   1  0  0  0  0  0  0  0  0  0  0  0
    5.4314   -2.1975    0.0000 H   1  0  0  0  0  0  0  0  0  0  0  0
    8.0844   -1.0163    0.0000 H   1  0  0  0  0  0  0  0  0  0  0  0
  1 15  1  0  0  0  0
  1 18  1  0  0  0  0
  2 24  1  0  0  0  0
  2 31  1  0  0  0  0
  3 16  1  0  0  0  0
  3 19  1  0  0  0  0
  4 19  2  0  0  0  0
  5 23  2  0  0  0  0
  6 26  2  0  0  0  0
  7 53  1  0  0  0  0
  7 54  1  0  0  0  0
  8 17  1  0  0  0  0
  8 18  2  0  0  0  0
  9 19  1  0  0  0  0
  9 20  1  0  0  0  0
 10 26  1  0  0  0  0
 10 29  1  0  0  0  0
 10 40  1  0  0  0  0
 11 21  1  0  0  0  0
 11 24  2  0  0  0  0
 12 22  1  0  0  0  0
 12 26  1  0  0  0  0
 13 23  1  0  0  0  0
 13 25  1  0  0  0  0
 14 37  1  0  0  0  0
 14 47  1  0  0  0  0
 14 48  1  0  0  0  0
 15 16  1  0  0  0  0
 15 17  2  0  0  0  0
 16 55  1  0  0  0  0
 16 56  1  0  0  0  0
 17 57  1  0  0  0  0
 18 58  1  0  0  0  0
 20 27  1  0  0  0  0
 20 28  1  6  0  0  0
 21 29  1  0  0  0  0
 21 31  2  0  0  0  0
 22 23  1  0  0  0  0
 22 34  1  1  0  0  0
 24 33  1  0  0  0  0
 25 30  1  0  0  0  0
 25 35  1  6  0  0  0
 27 30  1  0  0  0  0
 28 32  1  0  0  0  0
 32 38  2  0  0  0  0
 32 39  1  0  0  0  0
 33 43  1  0  0  0  0
 33 44  1  0  0  0  0
 34 37  1  0  0  0  0
 35 36  1  0  0  0  0
 36 41  2  0  0  0  0
 36 42  1  0  0  0  0
 38 45  1  0  0  0  0
 39 46  2  0  0  0  0
 41 50  1  0  0  0  0
 42 51  2  0  0  0  0
 45 49  2  0  0  0  0
 46 49  1  0  0  0  0
 47 53  1  0  0  0  0
 48 54  1  0  0  0  0
 50 52  2  0  0  0  0
 51 52  1  0  0  0  0
M  ISO  5  16  13  55   2  56   2  57   2  58   2
M  END
> <PUBCHEM_COMPOUND_ID_TYPE>
0

> <PUBCHEM_TOTAL_CHARGE>
0

> <PUBCHEM_SUBSTANCE_ID>
253658660

> <PUBCHEM_SUBSTANCE_VERSION>
1

> <PUBCHEM_EXT_DATASOURCE_NAME>
Alsachim

> <PUBCHEM_EXT_DATASOURCE_REGID>
4313

> <PUBCHEM_SUBSTANCE_COMMENT>
[13C, 2H4]-Cobicistat

> <PUBCHEM_SUBSTANCE_SYNONYM>
GS 9350

> <PUBCHEM_XREF_EXT_ID>
4313

> <PUBCHEM_EXT_DATASOURCE_URL>
http://www.alsachim.com

> <PUBCHEM_EXT_SUBSTANCE_URL>
http://www.alsachim.com/product-C5634-glo.bal-view.html

> <PUBCHEM_CID_ASSOCIATIONS>
91971717  1

> <PUBCHEM_COORDINATE_TYPE>
1
3

> <PUBCHEM_BONDANNOTATIONS>
20  28  6
22  34  5
25  35  6

$$$$
253709730
  -OEChem-04041605452D

 54 58  0     1  0  0  0  0  0999 V2000
    0.0000    0.0000    0.0000 S   0  0  0  0  0  0  0  0  0  0  0  0
    0.0000    0.0000    0.0000 S   0  0  0  0  0  0  0  0  0  0  0  0
    0.0000    0.0000    0.0000 O   0  0  0  0  0  0  0  0  0  0  0  0
    0.0000    0.0000    0.0000 O   0  0  0  0  0  0  0  0  0  0  0  0
    0.0000    0.0000    0.0000 O   0  0  0  0  0  0  0  0  0  0  0  0
    0.0000    0.0000    0.0000 O   0  0  0  0  0  0  0  0  0  0  0  0
    0.0000    0.0000    0.0000 O   0  0  0  0  0  0  0  0  0  0  0  0
    0.0000    0.0000    0.0000 N   0  0  0  0  0  0  0  0  0  0  0  0
    0.0000    0.0000    0.0000 N   0  0  0  0  0  0  0  0  0  0  0  0
    0.0000    0.0000    0.0000 N   0  0  0  0  0  0  0  0  0  0  0  0
    0.0000    0.0000    0.0000 N   0  0  0  0  0  0  0  0  0  0  0  0
    0.0000    0.0000    0.0000 N   0  0  0  0  0  0  0  0  0  0  0  0
    0.0000    0.0000    0.0000 N   0  0  0  0  0  0  0  0  0  0  0  0
    0.0000    0.0000    0.0000 N   0  0  0  0  0  0  0  0  0  0  0  0
    0.0000    0.0000    0.0000 C   0  0  0  0  0  0  0  0  0  0  0  0
    0.0000    0.0000    0.0000 C   0  0  3  0  0  0  0  0  0  0  0  0
    0.0000    0.0000    0.0000 C   0  0  0  0  0  0  0  0  0  0  0  0
    0.0000    0.0000    0.0000 C   0  0  0  0  0  0  0  0  0  0  0  0
    0.0000    0.0000    0.0000 C   0  0  0  0  0  0  0  0  0  0  0  0
    0.0000    0.0000    0.0000 C   0  0  0  0  0  0  0  0  0  0  0  0
    0.0000    0.0000    0.0000 C   0  0  0  0  0  0  0  0  0  0  0  0
    0.0000    0.0000    0.0000 C   0  0  3  0  0  0  0  0  0  0  0  0
    0.0000    0.0000    0.0000 C   0  0  0  0  0  0  0  0  0  0  0  0
    0.0000    0.0000    0.0000 C   0  0  0  0  0  0  0  0  0  0  0  0
    0.0000    0.0000    0.0000 C   0  0  0  0  0  0  0  0  0  0  0  0
    0.0000    0.0000    0.0000 C   0  0  0  0  0  0  0  0  0  0  0  0
    0.0000    0.0000    0.0000 C   0  0  3  0  0  0  0  0  0  0  0  0
    0.0000    0.0000    0.0000 C   0  0  0  0  0  0  0  0  0  0  0  0
    0.0000    0.0000    0.0000 C   0  0  0  0  0  0  0  0  0  0  0  0
    0.0000    0.0000    0.0000 C   0  0  0  0  0  0  0  0  0  0  0  0
    0.0000    0.0000    0.0000 C   0  0  0  0  0  0  0  0  0  0  0  0
    0.0000    0.0000    0.0000 C   0  0  0  0  0  0  0  0  0  0  0  0
    0.0000    0.0000    0.0000 C   0  0  0  0  0  0  0  0  0  0  0  0
    0.0000    0.0000    0.0000 C   0  0  0  0  0  0  0  0  0  0  0  0
    0.0000    0.0000    0.0000 C   0  0  0  0  0  0  0  0  0  0  0  0
    0.0000    0.0000    0.0000 C   0  0  0  0  0  0  0  0  0  0  0  0
    0.0000    0.0000    0.0000 C   0  0  0  0  0  0  0  0  0  0  0  0
    0.0000    0.0000    0.0000 C   0  0  0  0  0  0  0  0  0  0  0  0
    0.0000    0.0000    0.0000 C   0  0  0  0  0  0  0  0  0  0  0  0
    0.0000    0.0000    0.0000 C   0  0  0  0  0  0  0  0  0  0  0  0
    0.0000    0.0000    0.0000 C   0  0  0  0  0  0  0  0  0  0  0  0
    0.0000    0.0000    0.0000 C   0  0  0  0  0  0  0  0  0  0  0  0
    0.0000    0.0000    0.0000 C   0  0  0  0  0  0  0  0  0  0  0  0
    0.0000    0.0000    0.0000 C   0  0  0  0  0  0  0  0  0  0  0  0
    0.0000    0.0000    0.0000 C   0  0  0  0  0  0  0  0  0  0  0  0
    0.0000    0.0000    0.0000 C   0  0  0  0  0  0  0  0  0  0  0  0
    0.0000    0.0000    0.0000 C   0  0  0  0  0  0  0  0  0  0  0  0
    0.0000    0.0000    0.0000 C   0  0  0  0  0  0  0  0  0  0  0  0
    0.0000    0.0000    0.0000 C   0  0  0  0  0  0  0  0  0  0  0  0
    0.0000    0.0000    0.0000 C   0  0  0  0  0  0  0  0  0  0  0  0
    0.0000    0.0000    0.0000 C   0  0  0  0  0  0  0  0  0  0  0  0
    0.0000    0.0000    0.0000 C   0  0  0  0  0  0  0  0  0  0  0  0
    0.0000    0.0000    0.0000 C   0  0  0  0  0  0  0  0  0  0  0  0
    0.0000    0.0000    0.0000 C   0  0  0  0  0  0  0  0  0  0  0  0
  1 17  1  0  0  0  0
  1 21  1  0  0  0  0
  2 43  1  0  0  0  0
  2 54  1  0  0  0  0
  3 18  2  0  0  0  0
  4 19  2  0  0  0  0
  5 34  1  0  0  0  0
  5 46  1  0  0  0  0
  6 47  1  0  0  0  0
  6 48  1  0  0  0  0
  7 34  2  0  0  0  0
  8 18  1  0  0  0  0
  8 20  1  0  0  0  0
  8 31  1  0  0  0  0
  9 15  1  0  0  0  0
  9 17  2  0  0  0  0
 10 16  1  0  0  0  0
 10 18  1  0  0  0  0
 11 19  1  0  0  0  0
 11 22  1  0  0  0  0
 12 29  1  0  0  0  0
 12 39  1  0  0  0  0
 12 40  1  0  0  0  0
 13 27  1  0  0  0  0
 13 34  1  0  0  0  0
 14 52  1  0  0  0  0
 14 54  2  0  0  0  0
 15 20  1  0  0  0  0
 15 21  2  0  0  0  0
 16 19  1  0  0  0  0
 16 24  1  0  0  0  0
 17 23  1  0  0  0  0
 22 25  1  0  0  0  0
 22 26  1  0  0  0  0
 23 37  1  0  0  0  0
 23 38  1  0  0  0  0
 24 29  1  0  0  0  0
 25 28  1  0  0  0  0
 26 30  1  0  0  0  0
 27 30  1  0  0  0  0
 27 32  1  0  0  0  0
 28 35  2  0  0  0  0
 28 36  1  0  0  0  0
 32 33  1  0  0  0  0
 33 41  2  0  0  0  0
 33 42  1  0  0  0  0
 35 44  1  0  0  0  0
 36 45  2  0  0  0  0
 39 47  1  0  0  0  0
 40 48  1  0  0  0  0
 41 50  1  0  0  0  0
 42 51  2  0  0  0  0
 43 46  1  0  0  0  0
 43 52  2  0  0  0  0
 44 49  2  0  0  0  0
 45 49  1  0  0  0  0
 50 53  2  0  0  0  0
 51 53  1  0  0  0  0
M  END
> <PUBCHEM_COMPOUND_ID_TYPE>
0

> <PUBCHEM_TOTAL_CHARGE>
0

> <PUBCHEM_SUBSTANCE_ID>
253709730

> <PUBCHEM_SUBSTANCE_VERSION>
1

> <PUBCHEM_EXT_DATASOURCE_NAME>
4386

> <PUBCHEM_EXT_DATASOURCE_REGID>
AM011018

> <PUBCHEM_SUBSTANCE_SYNONYM>
AM011018
COBICISTAT

> <PUBCHEM_XREF_EXT_ID>
AM011018

> <PUBCHEM_EXT_DATASOURCE_URL>
http://3bsccorp.com/amino-acids-peptides-and-proteins/AM011018

> <PUBCHEM_CID_ASSOCIATIONS>
24950485  1

$$$$
254191908
  -OEChem-04041605452D

 10  9  0     1  0  0  0  0  0999 V2000
    0.0000    0.0000    0.0000 O   0  0  0  0  0  0  0  0  0  0  0  0
    0.0000    0.0000    0.0000 N   0  0  0  0  0  0  0  0  0  0  0  0
    0.0000    0.0000    0.0000 C   0  0  3  0  0  0  0  0  0  0  0  0
    0.0000    0.0000    0.0000 C   0  0  0  0  0  0  0  0  0  0  0  0
    0.0000    0.0000    0.0000 C   0  0  0  0  0  0  0  0  0  0  0  0
    0.0000    0.0000    0.0000 C   0  0  0  0  0  0  0  0  0  0  0  0
    0.0000    0.0000    0.0000 C   0  0  0  0  0  0  0  0  0  0  0  0
    0.0000    0.0000    0.0000 C   0  0  0  0  0  0  0  0  0  0  0  0
    0.0000    0.0000    0.0000 C   0  0  0  0  0  0  0  0  0  0  0  0
    0.0000    0.0000    0.0000 C   0  0  0  0  0  0  0  0  0  0  0  0
  1  4  2  0  0  0  0
  2  4  1  0  0  0  0
  3  4  1  0  0  0  0
  3  5  1  0  0  0  0
  3  6  1  0  0  0  0
  5  8  1  0  0  0  0
  5  9  1  0  0  0  0
  6  7  1  0  0  0  0
  7 10  2  0  0  0  0
M  END
> <PUBCHEM_COMPOUND_ID_TYPE>
0

> <PUBCHEM_TOTAL_CHARGE>
0

> <PUBCHEM_SUBSTANCE_ID>
254191908

> <PUBCHEM_SUBSTANCE_VERSION>
1

> <PUBCHEM_EXT_DATASOURCE_NAME>
4386

> <PUBCHEM_EXT_DATASOURCE_REGID>
OR254903

> <PUBCHEM_SUBSTANCE_SYNONYM>
ALLYLISOPROPYLACETAMIDE
OR254903

> <PUBCHEM_XREF_EXT_ID>
OR254903

> <PUBCHEM_EXT_DATASOURCE_URL>
http://www.3bsccorp.com

> <PUBCHEM_EXT_SUBSTANCE_URL>
http://3bsccorp.com/organic-chemicals/OR254903

> <PUBCHEM_CID_ASSOCIATIONS>
9297  1

$$$$
254759265
  -OEChem-04041605452D

 54 58  0     1  0  0  0  0  0999 V2000
   -6.6654   -0.9638    0.0000 S   0  0  0  0  0  0  0  0  0  0  0  0
    6.7640   -0.1670    0.0000 S   0  0  0  0  0  0  0  0  0  0  0  0
   -3.2162    0.5485    0.0000 O   0  0  0  0  0  0  0  0  0  0  0  0
   -1.0727   -1.5085    0.0000 O   0  0  0  0  0  0  0  0  0  0  0  0
    4.6431   -0.6863    0.0000 O   0  0  0  0  0  0  0  0  0  0  0  0
   -1.0752    3.4347    0.0000 O   0  0  0  0  0  0  0  0  0  0  0  0
    3.9286    0.5513    0.0000 O   0  0  0  0  0  0  0  0  0  0  0  0
   -3.9307   -0.6863    0.0000 N   0  0  0  0  0  0  0  0  0  0  0  0
   -5.4460   -1.5067    0.0000 N   0  0  0  0  0  0  0  0  0  0  0  0
   -2.5017   -0.6863    0.0000 N   0  0  0  0  0  0  0  0  0  0  0  0
   -0.3583   -0.2738    0.0000 N   0  0  0  0  0  0  0  0  0  0  0  0
   -1.0752    1.7846    0.0000 N   0  0  0  0  0  0  0  0  0  0  0  0
    3.2141   -0.6863    0.0000 N   0  0  0  0  0  0  0  0  0  0  0  0
    7.1095   -1.4831    0.0000 N   0  0  0  0  0  0  0  0  0  0  0  0
   -5.3597   -0.6863    0.0000 C   0  0  0  0  0  0  0  0  0  0  0  0
   -1.7872   -0.2738    0.0000 C   0  0  3  0  0  0  0  0  0  0  0  0
   -6.2529   -1.6783    0.0000 C   0  0  0  0  0  0  0  0  0  0  0  0
   -3.2162   -0.2738    0.0000 C   0  0  0  0  0  0  0  0  0  0  0  0
   -1.0727   -0.6863    0.0000 C   0  0  0  0  0  0  0  0  0  0  0  0
   -4.6452   -0.2738    0.0000 C   0  0  0  0  0  0  0  0  0  0  0  0
   -6.1134   -0.3507    0.0000 C   0  0  0  0  0  0  0  0  0  0  0  0
    0.3562   -0.6863    0.0000 C   0  0  3  0  0  0  0  0  0  0  0  0
   -6.5874   -2.4294    0.0000 C   0  0  0  0  0  0  0  0  0  0  0  0
   -1.7872    0.5513    0.0000 C   0  0  0  0  0  0  0  0  0  0  0  0
    0.3562   -1.5085    0.0000 C   0  0  0  0  0  0  0  0  0  0  0  0
    1.0706   -0.2738    0.0000 C   0  0  0  0  0  0  0  0  0  0  0  0
    2.4996   -0.2738    0.0000 C   0  0  3  0  0  0  0  0  0  0  0  0
   -0.2150   -2.0643    0.0000 C   0  0  0  0  0  0  0  0  0  0  0  0
   -1.0752    0.9624    0.0000 C   0  0  0  0  0  0  0  0  0  0  0  0
    1.7851   -0.6863    0.0000 C   0  0  0  0  0  0  0  0  0  0  0  0
   -3.9307   -1.5113    0.0000 C   0  0  0  0  0  0  0  0  0  0  0  0
    2.4996    0.5513    0.0000 C   0  0  0  0  0  0  0  0  0  0  0  0
    3.1282    0.9638    0.0000 C   0  0  0  0  0  0  0  0  0  0  0  0
    3.9286   -0.2738    0.0000 C   0  0  0  0  0  0  0  0  0  0  0  0
   -0.0132   -2.8613    0.0000 C   0  0  0  0  0  0  0  0  0  0  0  0
   -1.0063   -1.8406    0.0000 C   0  0  0  0  0  0  0  0  0  0  0  0
   -6.1040   -3.0947    0.0000 C   0  0  0  0  0  0  0  0  0  0  0  0
   -7.4051   -2.5153    0.0000 C   0  0  0  0  0  0  0  0  0  0  0  0
   -0.3607    2.1971    0.0000 C   0  0  0  0  0  0  0  0  0  0  0  0
   -1.7897    2.1971    0.0000 C   0  0  0  0  0  0  0  0  0  0  0  0
    3.0812    1.7847    0.0000 C   0  0  0  0  0  0  0  0  0  0  0  0
    3.8626    0.5941    0.0000 C   0  0  0  0  0  0  0  0  0  0  0  0
    6.0720   -0.6863    0.0000 C   0  0  0  0  0  0  0  0  0  0  0  0
   -0.6025   -3.4347    0.0000 C   0  0  0  0  0  0  0  0  0  0  0  0
   -1.5956   -2.4139    0.0000 C   0  0  0  0  0  0  0  0  0  0  0  0
    5.3576   -0.2738    0.0000 C   0  0  0  0  0  0  0  0  0  0  0  0
   -0.3607    3.0221    0.0000 C   0  0  0  0  0  0  0  0  0  0  0  0
   -1.7897    3.0221    0.0000 C   0  0  0  0  0  0  0  0  0  0  0  0
   -1.3937   -3.2110    0.0000 C   0  0  0  0  0  0  0  0  0  0  0  0
    3.7686    2.2358    0.0000 C   0  0  0  0  0  0  0  0  0  0  0  0
    4.5500    1.0452    0.0000 C   0  0  0  0  0  0  0  0  0  0  0  0
    6.2856   -1.4831    0.0000 C   0  0  0  0  0  0  0  0  0  0  0  0
    4.5030    1.8661    0.0000 C   0  0  0  0  0  0  0  0  0  0  0  0
    7.4051   -0.6863    0.0000 C   0  0  0  0  0  0  0  0  0  0  0  0
  1 17  1  0  0  0  0
  1 21  1  0  0  0  0
  2 43  1  0  0  0  0
  2 54  1  0  0  0  0
  3 18  2  0  0  0  0
  4 19  2  0  0  0  0
  5 34  1  0  0  0  0
  5 46  1  0  0  0  0
  6 47  1  0  0  0  0
  6 48  1  0  0  0  0
  7 34  2  0  0  0  0
  8 18  1  0  0  0  0
  8 20  1  0  0  0  0
  8 31  1  0  0  0  0
  9 15  1  0  0  0  0
  9 17  2  0  0  0  0
 10 16  1  0  0  0  0
 10 18  1  0  0  0  0
 11 19  1  0  0  0  0
 11 22  1  0  0  0  0
 12 29  1  0  0  0  0
 12 39  1  0  0  0  0
 12 40  1  0  0  0  0
 13 27  1  0  0  0  0
 13 34  1  0  0  0  0
 14 52  1  0  0  0  0
 14 54  2  0  0  0  0
 15 20  1  0  0  0  0
 15 21  2  0  0  0  0
 16 19  1  0  0  0  0
 16 24  1  1  0  0  0
 17 23  1  0  0  0  0
 22 25  1  6  0  0  0
 22 26  1  0  0  0  0
 23 37  1  0  0  0  0
 23 38  1  0  0  0  0
 24 29  1  0  0  0  0
 25 28  1  0  0  0  0
 26 30  1  0  0  0  0
 27 30  1  0  0  0  0
 27 32  1  6  0  0  0
 28 35  2  0  0  0  0
 28 36  1  0  0  0  0
 32 33  1  0  0  0  0
 33 41  2  0  0  0  0
 33 42  1  0  0  0  0
 35 44  1  0  0  0  0
 36 45  2  0  0  0  0
 39 47  1  0  0  0  0
 40 48  1  0  0  0  0
 41 50  1  0  0  0  0
 42 51  2  0  0  0  0
 43 46  1  0  0  0  0
 43 52  2  0  0  0  0
 44 49  2  0  0  0  0
 45 49  1  0  0  0  0
 50 53  2  0  0  0  0
 51 53  1  0  0  0  0
M  END
> <PUBCHEM_COMPOUND_ID_TYPE>
0

> <PUBCHEM_TOTAL_CHARGE>
0

> <PUBCHEM_SUBSTANCE_ID>
254759265

> <PUBCHEM_SUBSTANCE_VERSION>
1

> <PUBCHEM_EXT_DATASOURCE_NAME>
4398

> <PUBCHEM_EXT_DATASOURCE_REGID>
1004316-88-4

> <PUBCHEM_SUBSTANCE_COMMENT>
BOC Sciences is the chemistry division of Creative Dynamics Inc. headquartered in New York, USA. We provide Cobicistat (CAS No:1004316-88-4). Stock: 1kg. Delivery time: 7 Days.

> <PUBCHEM_SUBSTANCE_SYNONYM>
1004316-88-4
Cobicistat

> <PUBCHEM_GENERIC_REGISTRY_NAME>
1004316-88-4

> <PUBCHEM_XREF_EXT_ID>
1004316-88-4

> <PUBCHEM_EXT_DATASOURCE_URL>
http://www.bocsci.com/

> <PUBCHEM_EXT_SUBSTANCE_URL>
http://www.bocsci.com/description.asp?cas=1004316-88-4

> <PUBCHEM_CID_ASSOCIATIONS>
25151504  1

> <PUBCHEM_COORDINATE_TYPE>
1
3

> <PUBCHEM_BONDANNOTATIONS>
16  24  5
22  25  6
27  32  6

$$$$
254820011
  -OEChem-04041605452D

 57 61  0     1  0  0  0  0  0999 V2000
    0.0000    0.0000    0.0000 S   0  0  0  0  0  0  0  0  0  0  0  0
    0.0000    0.0000    0.0000 S   0  0  0  0  0  0  0  0  0  0  0  0
    0.0000    0.0000    0.0000 O   0  0  0  0  0  0  0  0  0  0  0  0
    0.0000    0.0000    0.0000 O   0  0  0  0  0  0  0  0  0  0  0  0
    0.0000    0.0000    0.0000 O   0  0  0  0  0  0  0  0  0  0  0  0
    0.0000    0.0000    0.0000 O   0  0  0  0  0  0  0  0  0  0  0  0
    0.0000    0.0000    0.0000 O   0  0  0  0  0  0  0  0  0  0  0  0
    0.0000    0.0000    0.0000 N   0  0  0  0  0  0  0  0  0  0  0  0
    0.0000    0.0000    0.0000 N   0  0  0  0  0  0  0  0  0  0  0  0
    0.0000    0.0000    0.0000 N   0  0  0  0  0  0  0  0  0  0  0  0
    0.0000    0.0000    0.0000 N   0  0  0  0  0  0  0  0  0  0  0  0
    0.0000    0.0000    0.0000 N   0  0  0  0  0  0  0  0  0  0  0  0
    0.0000    0.0000    0.0000 N   0  0  0  0  0  0  0  0  0  0  0  0
    0.0000    0.0000    0.0000 N   0  0  0  0  0  0  0  0  0  0  0  0
    0.0000    0.0000    0.0000 C   0  0  2  0  0  0  0  0  0  0  0  0
    0.0000    0.0000    0.0000 C   0  0  2  0  0  0  0  0  0  0  0  0
    0.0000    0.0000    0.0000 C   0  0  0  0  0  0  0  0  0  0  0  0
    0.0000    0.0000    0.0000 C   0  0  2  0  0  0  0  0  0  0  0  0
    0.0000    0.0000    0.0000 C   0  0  0  0  0  0  0  0  0  0  0  0
    0.0000    0.0000    0.0000 C   0  0  0  0  0  0  0  0  0  0  0  0
    0.0000    0.0000    0.0000 C   0  0  0  0  0  0  0  0  0  0  0  0
    0.0000    0.0000    0.0000 C   0  0  0  0  0  0  0  0  0  0  0  0
    0.0000    0.0000    0.0000 C   0  0  0  0  0  0  0  0  0  0  0  0
    0.0000    0.0000    0.0000 C   0  0  0  0  0  0  0  0  0  0  0  0
    0.0000    0.0000    0.0000 C   0  0  0  0  0  0  0  0  0  0  0  0
    0.0000    0.0000    0.0000 C   0  0  0  0  0  0  0  0  0  0  0  0
    0.0000    0.0000    0.0000 C   0  0  0  0  0  0  0  0  0  0  0  0
    0.0000    0.0000    0.0000 C   0  0  0  0  0  0  0  0  0  0  0  0
    0.0000    0.0000    0.0000 C   0  0  0  0  0  0  0  0  0  0  0  0
    0.0000    0.0000    0.0000 C   0  0  0  0  0  0  0  0  0  0  0  0
    0.0000    0.0000    0.0000 C   0  0  0  0  0  0  0  0  0  0  0  0
    0.0000    0.0000    0.0000 C   0  0  0  0  0  0  0  0  0  0  0  0
    0.0000    0.0000    0.0000 C   0  0  0  0  0  0  0  0  0  0  0  0
    0.0000    0.0000    0.0000 C   0  0  0  0  0  0  0  0  0  0  0  0
    0.0000    0.0000    0.0000 C   0  0  0  0  0  0  0  0  0  0  0  0
    0.0000    0.0000    0.0000 C   0  0  0  0  0  0  0  0  0  0  0  0
    0.0000    0.0000    0.0000 C   0  0  0  0  0  0  0  0  0  0  0  0
    0.0000    0.0000    0.0000 C   0  0  0  0  0  0  0  0  0  0  0  0
    0.0000    0.0000    0.0000 C   0  0  0  0  0  0  0  0  0  0  0  0
    0.0000    0.0000    0.0000 C   0  0  0  0  0  0  0  0  0  0  0  0
    0.0000    0.0000    0.0000 C   0  0  0  0  0  0  0  0  0  0  0  0
    0.0000    0.0000    0.0000 C   0  0  0  0  0  0  0  0  0  0  0  0
    0.0000    0.0000    0.0000 C   0  0  0  0  0  0  0  0  0  0  0  0
    0.0000    0.0000    0.0000 C   0  0  0  0  0  0  0  0  0  0  0  0
    0.0000    0.0000    0.0000 C   0  0  0  0  0  0  0  0  0  0  0  0
    0.0000    0.0000    0.0000 C   0  0  0  0  0  0  0  0  0  0  0  0
    0.0000    0.0000    0.0000 C   0  0  0  0  0  0  0  0  0  0  0  0
    0.0000    0.0000    0.0000 C   0  0  0  0  0  0  0  0  0  0  0  0
    0.0000    0.0000    0.0000 C   0  0  0  0  0  0  0  0  0  0  0  0
    0.0000    0.0000    0.0000 C   0  0  0  0  0  0  0  0  0  0  0  0
    0.0000    0.0000    0.0000 C   0  0  0  0  0  0  0  0  0  0  0  0
    0.0000    0.0000    0.0000 C   0  0  0  0  0  0  0  0  0  0  0  0
    0.0000    0.0000    0.0000 C   0  0  0  0  0  0  0  0  0  0  0  0
    0.0000    0.0000    0.0000 C   0  0  0  0  0  0  0  0  0  0  0  0
    0.0000    0.0000    0.0000 H   0  0  0  0  0  0  0  0  0  0  0  0
    0.0000    0.0000    0.0000 H   0  0  0  0  0  0  0  0  0  0  0  0
    0.0000    0.0000    0.0000 H   0  0  0  0  0  0  0  0  0  0  0  0
  1 33  1  0  0  0  0
  1 34  1  0  0  0  0
  2 50  1  0  0  0  0
  2 54  1  0  0  0  0
  3 17  2  0  0  0  0
  4 22  2  0  0  0  0
  5 30  1  0  0  0  0
  5 48  1  0  0  0  0
  6 30  2  0  0  0  0
  7 46  1  0  0  0  0
  7 47  1  0  0  0  0
  8 16  1  0  0  0  0
  8 17  1  0  0  0  0
  9 15  1  0  0  0  0
  9 22  1  0  0  0  0
 10 22  1  0  0  0  0
 10 28  1  0  0  0  0
 10 35  1  0  0  0  0
 11 18  1  0  0  0  0
 11 30  1  0  0  0  0
 12 26  1  0  0  0  0
 12 38  1  0  0  0  0
 12 39  1  0  0  0  0
 13 27  1  0  0  0  0
 13 33  2  0  0  0  0
 14 53  1  0  0  0  0
 14 54  2  0  0  0  0
 15 17  1  0  0  0  0
 15 20  1  0  0  0  0
 15 55  1  0  0  0  0
 16 19  1  0  0  0  0
 16 21  1  0  0  0  0
 16 56  1  0  0  0  0
 18 23  1  0  0  0  0
 18 25  1  0  0  0  0
 18 57  1  0  0  0  0
 19 23  1  0  0  0  0
 20 26  1  0  0  0  0
 21 24  1  0  0  0  0
 24 31  2  0  0  0  0
 24 32  1  0  0  0  0
 25 29  1  0  0  0  0
 27 28  1  0  0  0  0
 27 34  2  0  0  0  0
 29 36  2  0  0  0  0
 29 37  1  0  0  0  0
 31 40  1  0  0  0  0
 32 41  2  0  0  0  0
 33 42  1  0  0  0  0
 36 44  1  0  0  0  0
 37 45  2  0  0  0  0
 38 46  1  0  0  0  0
 39 47  1  0  0  0  0
 40 43  2  0  0  0  0
 41 43  1  0  0  0  0
 42 51  1  0  0  0  0
 42 52  1  0  0  0  0
 44 49  2  0  0  0  0
 45 49  1  0  0  0  0
 48 50  1  0  0  0  0
 50 53  2  0  0  0  0
M  END
> <PUBCHEM_COMPOUND_ID_TYPE>
0

> <PUBCHEM_TOTAL_CHARGE>
0

> <PUBCHEM_SUBSTANCE_ID>
254820011

> <PUBCHEM_SUBSTANCE_VERSION>
1

> <PUBCHEM_EXT_DATASOURCE_NAME>
1081

> <PUBCHEM_EXT_DATASOURCE_REGID>
KB-76152

> <PUBCHEM_SUBSTANCE_SYNONYM>
1004316-88-4
Cobicistat
KB-76152

> <PUBCHEM_GENERIC_REGISTRY_NAME>
1004316-88-4

> <PUBCHEM_XREF_EXT_ID>
KB-76152

> <PUBCHEM_EXT_DATASOURCE_URL>
http://www.chembopharma.com

> <PUBCHEM_EXT_SUBSTANCE_URL>
http://www.chembopharma.com/search/?keyword=KB-76152

> <PUBCHEM_CID_ASSOCIATIONS>
25151504  1

$$$$
255343979
  -OEChem-04041605452D

 54 58  0     1  0  0  0  0  0999 V2000
   -5.9561   -1.8170    0.0000 S   0  0  0  0  0  0  0  0  0  0  0  0
    7.1219   -0.4894    0.0000 S   0  0  0  0  0  0  0  0  0  0  0  0
   -2.9196    0.4125    0.0000 O   0  0  0  0  0  0  0  0  0  0  0  0
   -0.7762   -1.6500    0.0000 O   0  0  0  0  0  0  0  0  0  0  0  0
    4.9394   -0.8250    0.0000 O   0  0  0  0  0  0  0  0  0  0  0  0
   -2.2051    3.2999    0.0000 O   0  0  0  0  0  0  0  0  0  0  0  0
    4.2250    0.4125    0.0000 O   0  0  0  0  0  0  0  0  0  0  0  0
   -3.6340   -0.8250    0.0000 N   0  0  0  0  0  0  0  0  0  0  0  0
   -5.8165   -0.4894    0.0000 N   0  0  0  0  0  0  0  0  0  0  0  0
   -2.2051   -0.8250    0.0000 N   0  0  0  0  0  0  0  0  0  0  0  0
   -0.0618   -0.4125    0.0000 N   0  0  0  0  0  0  0  0  0  0  0  0
   -2.2051    1.6500    0.0000 N   0  0  0  0  0  0  0  0  0  0  0  0
    3.5105   -0.8250    0.0000 N   0  0  0  0  0  0  0  0  0  0  0  0
    7.2615   -1.8170    0.0000 N   0  0  0  0  0  0  0  0  0  0  0  0
   -5.0630   -0.8250    0.0000 C   0  0  0  0  0  0  0  0  0  0  0  0
   -1.4907   -0.4125    0.0000 C   0  0  3  0  0  0  0  0  0  0  0  0
   -6.3686   -1.1025    0.0000 C   0  0  0  0  0  0  0  0  0  0  0  0
   -2.9196   -0.4125    0.0000 C   0  0  0  0  0  0  0  0  0  0  0  0
   -0.7762   -0.8250    0.0000 C   0  0  0  0  0  0  0  0  0  0  0  0
   -4.3485   -0.4125    0.0000 C   0  0  0  0  0  0  0  0  0  0  0  0
   -5.1492   -1.6455    0.0000 C   0  0  0  0  0  0  0  0  0  0  0  0
    0.6527   -0.8250    0.0000 C   0  0  3  0  0  0  0  0  0  0  0  0
   -7.1891   -1.0163    0.0000 C   0  0  0  0  0  0  0  0  0  0  0  0
   -1.4907    0.4125    0.0000 C   0  0  0  0  0  0  0  0  0  0  0  0
    0.6527   -1.6500    0.0000 C   0  0  0  0  0  0  0  0  0  0  0  0
    1.3672   -0.4125    0.0000 C   0  0  0  0  0  0  0  0  0  0  0  0
    2.7960   -0.4125    0.0000 C   0  0  3  0  0  0  0  0  0  0  0  0
    1.3672   -2.0624    0.0000 C   0  0  0  0  0  0  0  0  0  0  0  0
   -2.2051    0.8250    0.0000 C   0  0  0  0  0  0  0  0  0  0  0  0
    2.0815   -0.8250    0.0000 C   0  0  0  0  0  0  0  0  0  0  0  0
   -3.6340   -1.6500    0.0000 C   0  0  0  0  0  0  0  0  0  0  0  0
    2.7960    0.4125    0.0000 C   0  0  0  0  0  0  0  0  0  0  0  0
    2.0815    0.8250    0.0000 C   0  0  0  0  0  0  0  0  0  0  0  0
    4.2250   -0.4125    0.0000 C   0  0  0  0  0  0  0  0  0  0  0  0
    1.3672   -2.8874    0.0000 C   0  0  0  0  0  0  0  0  0  0  0  0
    2.0815   -1.6500    0.0000 C   0  0  0  0  0  0  0  0  0  0  0  0
   -7.5246   -0.2626    0.0000 C   0  0  0  0  0  0  0  0  0  0  0  0
   -7.6740   -1.6837    0.0000 C   0  0  0  0  0  0  0  0  0  0  0  0
   -1.4907    2.0624    0.0000 C   0  0  0  0  0  0  0  0  0  0  0  0
   -2.9196    2.0624    0.0000 C   0  0  0  0  0  0  0  0  0  0  0  0
    2.0815    1.6500    0.0000 C   0  0  0  0  0  0  0  0  0  0  0  0
    1.3672    0.4125    0.0000 C   0  0  0  0  0  0  0  0  0  0  0  0
    6.3683   -0.8250    0.0000 C   0  0  0  0  0  0  0  0  0  0  0  0
    2.0815   -3.2999    0.0000 C   0  0  0  0  0  0  0  0  0  0  0  0
    2.7960   -2.0624    0.0000 C   0  0  0  0  0  0  0  0  0  0  0  0
    5.6538   -0.4125    0.0000 C   0  0  0  0  0  0  0  0  0  0  0  0
   -1.4907    2.8874    0.0000 C   0  0  0  0  0  0  0  0  0  0  0  0
   -2.9196    2.8874    0.0000 C   0  0  0  0  0  0  0  0  0  0  0  0
    2.7960   -2.8874    0.0000 C   0  0  0  0  0  0  0  0  0  0  0  0
    1.3672    2.0624    0.0000 C   0  0  0  0  0  0  0  0  0  0  0  0
    0.6527    0.8250    0.0000 C   0  0  0  0  0  0  0  0  0  0  0  0
    6.4545   -1.6455    0.0000 C   0  0  0  0  0  0  0  0  0  0  0  0
    0.6527    1.6500    0.0000 C   0  0  0  0  0  0  0  0  0  0  0  0
    7.6740   -1.1025    0.0000 C   0  0  0  0  0  0  0  0  0  0  0  0
  1 17  1  0  0  0  0
  1 21  1  0  0  0  0
  2 43  1  0  0  0  0
  2 54  1  0  0  0  0
  3 18  2  0  0  0  0
  4 19  2  0  0  0  0
  5 34  1  0  0  0  0
  5 46  1  0  0  0  0
  6 47  1  0  0  0  0
  6 48  1  0  0  0  0
  7 34  2  0  0  0  0
  8 18  1  0  0  0  0
  8 20  1  0  0  0  0
  8 31  1  0  0  0  0
  9 15  1  0  0  0  0
  9 17  2  0  0  0  0
 10 16  1  0  0  0  0
 10 18  1  0  0  0  0
 11 19  1  0  0  0  0
 11 22  1  0  0  0  0
 12 29  1  0  0  0  0
 12 39  1  0  0  0  0
 12 40  1  0  0  0  0
 13 27  1  0  0  0  0
 13 34  1  0  0  0  0
 14 52  1  0  0  0  0
 14 54  2  0  0  0  0
 15 20  1  0  0  0  0
 15 21  2  0  0  0  0
 16 19  1  0  0  0  0
 16 24  1  1  0  0  0
 17 23  1  0  0  0  0
 22 25  1  6  0  0  0
 22 26  1  0  0  0  0
 23 37  1  0  0  0  0
 23 38  1  0  0  0  0
 24 29  1  0  0  0  0
 25 28  1  0  0  0  0
 26 30  1  0  0  0  0
 27 30  1  0  0  0  0
 27 32  1  6  0  0  0
 28 35  2  0  0  0  0
 28 36  1  0  0  0  0
 32 33  1  0  0  0  0
 33 41  2  0  0  0  0
 33 42  1  0  0  0  0
 35 44  1  0  0  0  0
 36 45  2  0  0  0  0
 39 47  1  0  0  0  0
 40 48  1  0  0  0  0
 41 50  1  0  0  0  0
 42 51  2  0  0  0  0
 43 46  1  0  0  0  0
 43 52  2  0  0  0  0
 44 49  2  0  0  0  0
 45 49  1  0  0  0  0
 50 53  2  0  0  0  0
 51 53  1  0  0  0  0
M  END
> <PUBCHEM_COMPOUND_ID_TYPE>
0

> <PUBCHEM_TOTAL_CHARGE>
0

> <PUBCHEM_SUBSTANCE_ID>
255343979

> <PUBCHEM_SUBSTANCE_VERSION>
2

> <PUBCHEM_EXT_DATASOURCE_NAME>
10619

> <PUBCHEM_EXT_DATASOURCE_REGID>
AZM13532

> <PUBCHEM_SUBSTANCE_SYNONYM>
1004316-88-4
Cobicistat

> <PUBCHEM_GENERIC_REGISTRY_NAME>
1004316-88-4

> <PUBCHEM_XREF_EXT_ID>
AZM13532

> <PUBCHEM_EXT_DATASOURCE_URL>
http://www.a2zchemical.com

> <PUBCHEM_EXT_SUBSTANCE_URL>
http://www.a2zchemical.com/AZM13532.html

> <PUBCHEM_CID_ASSOCIATIONS>
25151504  1

> <PUBCHEM_COORDINATE_TYPE>
1
3

> <PUBCHEM_BONDANNOTATIONS>
16  24  5
22  25  6
27  32  6

$$$$
273990879
  -OEChem-04041605452D

107111  0     1  0  0  0  0  0999 V2000
    0.0000    0.0000    0.0000 S   0  0  0  0  0  0  0  0  0  0  0  0
    0.0000    0.0000    0.0000 S   0  0  0  0  0  0  0  0  0  0  0  0
    0.0000    0.0000    0.0000 O   0  0  0  0  0  0  0  0  0  0  0  0
    0.0000    0.0000    0.0000 O   0  0  0  0  0  0  0  0  0  0  0  0
    0.0000    0.0000    0.0000 O   0  0  0  0  0  0  0  0  0  0  0  0
    0.0000    0.0000    0.0000 O   0  0  0  0  0  0  0  0  0  0  0  0
    0.0000    0.0000    0.0000 O   0  0  0  0  0  0  0  0  0  0  0  0
    0.0000    0.0000    0.0000 N   0  0  0  0  0  0  0  0  0  0  0  0
    0.0000    0.0000    0.0000 N   0  0  0  0  0  0  0  0  0  0  0  0
    0.0000    0.0000    0.0000 N   0  0  0  0  0  0  0  0  0  0  0  0
    0.0000    0.0000    0.0000 N   0  0  0  0  0  0  0  0  0  0  0  0
    0.0000    0.0000    0.0000 N   0  0  0  0  0  0  0  0  0  0  0  0
    0.0000    0.0000    0.0000 N   0  0  0  0  0  0  0  0  0  0  0  0
    0.0000    0.0000    0.0000 N   0  0  0  0  0  0  0  0  0  0  0  0
    0.0000    0.0000    0.0000 C   0  0  2  0  0  0  0  0  0  0  0  0
    0.0000    0.0000    0.0000 C   0  0  0  0  0  0  0  0  0  0  0  0
    0.0000    0.0000    0.0000 C   0  0  0  0  0  0  0  0  0  0  0  0
    0.0000    0.0000    0.0000 C   0  0  0  0  0  0  0  0  0  0  0  0
    0.0000    0.0000    0.0000 C   0  0  0  0  0  0  0  0  0  0  0  0
    0.0000    0.0000    0.0000 C   0  0  2  0  0  0  0  0  0  0  0  0
    0.0000    0.0000    0.0000 C   0  0  1  0  0  0  0  0  0  0  0  0
    0.0000    0.0000    0.0000 C   0  0  0  0  0  0  0  0  0  0  0  0
    0.0000    0.0000    0.0000 C   0  0  0  0  0  0  0  0  0  0  0  0
    0.0000    0.0000    0.0000 C   0  0  0  0  0  0  0  0  0  0  0  0
    0.0000    0.0000    0.0000 C   0  0  0  0  0  0  0  0  0  0  0  0
    0.0000    0.0000    0.0000 C   0  0  0  0  0  0  0  0  0  0  0  0
    0.0000    0.0000    0.0000 C   0  0  0  0  0  0  0  0  0  0  0  0
    0.0000    0.0000    0.0000 C   0  0  0  0  0  0  0  0  0  0  0  0
    0.0000    0.0000    0.0000 C   0  0  0  0  0  0  0  0  0  0  0  0
    0.0000    0.0000    0.0000 C   0  0  0  0  0  0  0  0  0  0  0  0
    0.0000    0.0000    0.0000 C   0  0  0  0  0  0  0  0  0  0  0  0
    0.0000    0.0000    0.0000 C   0  0  0  0  0  0  0  0  0  0  0  0
    0.0000    0.0000    0.0000 C   0  0  0  0  0  0  0  0  0  0  0  0
    0.0000    0.0000    0.0000 C   0  0  0  0  0  0  0  0  0  0  0  0
    0.0000    0.0000    0.0000 C   0  0  0  0  0  0  0  0  0  0  0  0
    0.0000    0.0000    0.0000 C   0  0  0  0  0  0  0  0  0  0  0  0
    0.0000    0.0000    0.0000 C   0  0  0  0  0  0  0  0  0  0  0  0
    0.0000    0.0000    0.0000 C   0  0  0  0  0  0  0  0  0  0  0  0
    0.0000    0.0000    0.0000 C   0  0  0  0  0  0  0  0  0  0  0  0
    0.0000    0.0000    0.0000 C   0  0  0  0  0  0  0  0  0  0  0  0
    0.0000    0.0000    0.0000 C   0  0  0  0  0  0  0  0  0  0  0  0
    0.0000    0.0000    0.0000 C   0  0  0  0  0  0  0  0  0  0  0  0
    0.0000    0.0000    0.0000 C   0  0  0  0  0  0  0  0  0  0  0  0
    0.0000    0.0000    0.0000 C   0  0  0  0  0  0  0  0  0  0  0  0
    0.0000    0.0000    0.0000 C   0  0  0  0  0  0  0  0  0  0  0  0
    0.0000    0.0000    0.0000 C   0  0  0  0  0  0  0  0  0  0  0  0
    0.0000    0.0000    0.0000 C   0  0  0  0  0  0  0  0  0  0  0  0
    0.0000    0.0000    0.0000 C   0  0  0  0  0  0  0  0  0  0  0  0
    0.0000    0.0000    0.0000 C   0  0  0  0  0  0  0  0  0  0  0  0
    0.0000    0.0000    0.0000 C   0  0  0  0  0  0  0  0  0  0  0  0
    0.0000    0.0000    0.0000 C   0  0  0  0  0  0  0  0  0  0  0  0
    0.0000    0.0000    0.0000 C   0  0  0  0  0  0  0  0  0  0  0  0
    0.0000    0.0000    0.0000 C   0  0  0  0  0  0  0  0  0  0  0  0
    0.0000    0.0000    0.0000 C   0  0  0  0  0  0  0  0  0  0  0  0
    0.0000    0.0000    0.0000 H   0  0  0  0  0  0  0  0  0  0  0  0
    0.0000    0.0000    0.0000 H   0  0  0  0  0  0  0  0  0  0  0  0
    0.0000    0.0000    0.0000 H   0  0  0  0  0  0  0  0  0  0  0  0
    0.0000    0.0000    0.0000 H   0  0  0  0  0  0  0  0  0  0  0  0
    0.0000    0.0000    0.0000 H   0  0  0  0  0  0  0  0  0  0  0  0
    0.0000    0.0000    0.0000 H   0  0  0  0  0  0  0  0  0  0  0  0
    0.0000    0.0000    0.0000 H   0  0  0  0  0  0  0  0  0  0  0  0
    0.0000    0.0000    0.0000 H   0  0  0  0  0  0  0  0  0  0  0  0
    0.0000    0.0000    0.0000 H   0  0  0  0  0  0  0  0  0  0  0  0
    0.0000    0.0000    0.0000 H   0  0  0  0  0  0  0  0  0  0  0  0
    0.0000    0.0000    0.0000 H   0  0  0  0  0  0  0  0  0  0  0  0
    0.0000    0.0000    0.0000 H   0  0  0  0  0  0  0  0  0  0  0  0
    0.0000    0.0000    0.0000 H   0  0  0  0  0  0  0  0  0  0  0  0
    0.0000    0.0000    0.0000 H   0  0  0  0  0  0  0  0  0  0  0  0
    0.0000    0.0000    0.0000 H   0  0  0  0  0  0  0  0  0  0  0  0
    0.0000    0.0000    0.0000 H   0  0  0  0  0  0  0  0  0  0  0  0
    0.0000    0.0000    0.0000 H   0  0  0  0  0  0  0  0  0  0  0  0
    0.0000    0.0000    0.0000 H   0  0  0  0  0  0  0  0  0  0  0  0
    0.0000    0.0000    0.0000 H   0  0  0  0  0  0  0  0  0  0  0  0
    0.0000    0.0000    0.0000 H   0  0  0  0  0  0  0  0  0  0  0  0
    0.0000    0.0000    0.0000 H   0  0  0  0  0  0  0  0  0  0  0  0
    0.0000    0.0000    0.0000 H   0  0  0  0  0  0  0  0  0  0  0  0
    0.0000    0.0000    0.0000 H   0  0  0  0  0  0  0  0  0  0  0  0
    0.0000    0.0000    0.0000 H   0  0  0  0  0  0  0  0  0  0  0  0
    0.0000    0.0000    0.0000 H   0  0  0  0  0  0  0  0  0  0  0  0
    0.0000    0.0000    0.0000 H   0  0  0  0  0  0  0  0  0  0  0  0
    0.0000    0.0000    0.0000 H   0  0  0  0  0  0  0  0  0  0  0  0
    0.0000    0.0000    0.0000 H   0  0  0  0  0  0  0  0  0  0  0  0
    0.0000    0.0000    0.0000 H   0  0  0  0  0  0  0  0  0  0  0  0
    0.0000    0.0000    0.0000 H   0  0  0  0  0  0  0  0  0  0  0  0
    0.0000    0.0000    0.0000 H   0  0  0  0  0  0  0  0  0  0  0  0
    0.0000    0.0000    0.0000 H   0  0  0  0  0  0  0  0  0  0  0  0
    0.0000    0.0000    0.0000 H   0  0  0  0  0  0  0  0  0  0  0  0
    0.0000    0.0000    0.0000 H   0  0  0  0  0  0  0  0  0  0  0  0
    0.0000    0.0000    0.0000 H   0  0  0  0  0  0  0  0  0  0  0  0
    0.0000    0.0000    0.0000 H   0  0  0  0  0  0  0  0  0  0  0  0
    0.0000    0.0000    0.0000 H   0  0  0  0  0  0  0  0  0  0  0  0
    0.0000    0.0000    0.0000 H   0  0  0  0  0  0  0  0  0  0  0  0
    0.0000    0.0000    0.0000 H   0  0  0  0  0  0  0  0  0  0  0  0
    0.0000    0.0000    0.0000 H   0  0  0  0  0  0  0  0  0  0  0  0
    0.0000    0.0000    0.0000 H   0  0  0  0  0  0  0  0  0  0  0  0
    0.0000    0.0000    0.0000 H   0  0  0  0  0  0  0  0  0  0  0  0
    0.0000    0.0000    0.0000 H   0  0  0  0  0  0  0  0  0  0  0  0
    0.0000    0.0000    0.0000 H   0  0  0  0  0  0  0  0  0  0  0  0
    0.0000    0.0000    0.0000 H   0  0  0  0  0  0  0  0  0  0  0  0
    0.0000    0.0000    0.0000 H   0  0  0  0  0  0  0  0  0  0  0  0
    0.0000    0.0000    0.0000 H   0  0  0  0  0  0  0  0  0  0  0  0
    0.0000    0.0000    0.0000 H   0  0  0  0  0  0  0  0  0  0  0  0
    0.0000    0.0000    0.0000 H   0  0  0  0  0  0  0  0  0  0  0  0
    0.0000    0.0000    0.0000 H   0  0  0  0  0  0  0  0  0  0  0  0
    0.0000    0.0000    0.0000 H   0  0  0  0  0  0  0  0  0  0  0  0
    0.0000    0.0000    0.0000 H   0  0  0  0  0  0  0  0  0  0  0  0
    0.0000    0.0000    0.0000 H   0  0  0  0  0  0  0  0  0  0  0  0
  1 48  1  0  0  0  0
  1 49  1  0  0  0  0
  2 52  1  0  0  0  0
  2 54  1  0  0  0  0
  3 25  1  0  0  0  0
  3 26  1  0  0  0  0
  4 28  1  0  0  0  0
  4 80  1  0  0  0  0
  5 33  1  0  0  0  0
  5 94  1  0  0  0  0
  6 36  1  0  0  0  0
  6 46  1  0  0  0  0
  7 36  1  0  0  0  0
  7 95  1  0  0  0  0
  8 17  1  0  0  0  0
  8 22  1  0  0  0  0
  8 23  1  0  0  0  0
  9 15  1  0  0  0  0
  9 28  2  3  0  0  0
 10 21  1  0  0  0  0
 10 33  2  3  0  0  0
 11 20  1  0  0  0  0
 11 36  2  3  0  0  0
 12 33  1  0  0  0  0
 12 42  1  0  0  0  0
 12 44  1  0  0  0  0
 13 45  1  0  0  0  0
 13 48  2  0  0  0  0
 14 53  1  0  0  0  0
 14 54  2  0  0  0  0
 15 16  1  0  0  0  0
 15 24  1  0  0  0  0
 15 55  1  0  0  0  0
 16 18  1  0  0  0  0
 16 56  1  0  0  0  0
 16 57  1  0  0  0  0
 17 19  1  0  0  0  0
 17 58  1  0  0  0  0
 17 59  1  0  0  0  0
 18 20  1  0  0  0  0
 18 60  1  0  0  0  0
 18 61  1  0  0  0  0
 19 21  1  0  0  0  0
 19 62  1  0  0  0  0
 19 63  1  0  0  0  0
 20 27  1  0  0  0  0
 20 64  1  0  0  0  0
 21 28  1  0  0  0  0
 21 65  1  0  0  0  0
 22 25  1  0  0  0  0
 22 66  1  0  0  0  0
 22 67  1  0  0  0  0
 23 26  1  0  0  0  0
 23 68  1  0  0  0  0
 23 69  1  0  0  0  0
 24 29  1  0  0  0  0
 24 70  1  0  0  0  0
 24 71  1  0  0  0  0
 25 72  1  0  0  0  0
 25 73  1  0  0  0  0
 26 74  1  0  0  0  0
 26 75  1  0  0  0  0
 27 30  1  0  0  0  0
 27 76  1  0  0  0  0
 27 77  1  0  0  0  0
 29 31  2  0  0  0  0
 29 32  1  0  0  0  0
 30 34  2  0  0  0  0
 30 35  1  0  0  0  0
 31 37  1  0  0  0  0
 31 78  1  0  0  0  0
 32 38  2  0  0  0  0
 32 79  1  0  0  0  0
 34 40  1  0  0  0  0
 34 81  1  0  0  0  0
 35 41  2  0  0  0  0
 35 82  1  0  0  0  0
 37 39  2  0  0  0  0
 37 83  1  0  0  0  0
 38 39  1  0  0  0  0
 38 84  1  0  0  0  0
 39 85  1  0  0  0  0
 40 43  2  0  0  0  0
 40 86  1  0  0  0  0
 41 43  1  0  0  0  0
 41 87  1  0  0  0  0
 42 45  1  0  0  0  0
 42 88  1  0  0  0  0
 42 89  1  0  0  0  0
 43 90  1  0  0  0  0
 44 91  1  0  0  0  0
 44 92  1  0  0  0  0
 44 93  1  0  0  0  0
 45 49  2  0  0  0  0
 46 52  1  0  0  0  0
 46 96  1  0  0  0  0
 46 97  1  0  0  0  0
 47 48  1  0  0  0  0
 47 50  1  0  0  0  0
 47 51  1  0  0  0  0
 47 98  1  0  0  0  0
 49 99  1  0  0  0  0
 50100  1  0  0  0  0
 50101  1  0  0  0  0
 50102  1  0  0  0  0
 51103  1  0  0  0  0
 51104  1  0  0  0  0
 51105  1  0  0  0  0
 52 53  2  0  0  0  0
 53106  1  0  0  0  0
 54107  1  0  0  0  0
M  END
> <PUBCHEM_COMPOUND_ID_TYPE>
0

> <PUBCHEM_TOTAL_CHARGE>
0

> <PUBCHEM_SUBSTANCE_ID>
273990879

> <PUBCHEM_SUBSTANCE_VERSION>
1

> <PUBCHEM_EXT_DATASOURCE_NAME>
11834

> <PUBCHEM_EXT_DATASOURCE_REGID>
J3.033.505H

> <PUBCHEM_SUBSTANCE_SYNONYM>
1004316-88-4
Cobicistat

> <PUBCHEM_GENERIC_REGISTRY_NAME>
1004316-88-4

> <PUBCHEM_XREF_EXT_ID>
J3.033.505H

> <PUBCHEM_EXT_DATASOURCE_URL>
http://doi.org/10.15079/NIKKAJI

> <PUBCHEM_EXT_SUBSTANCE_URL>
http://nikkajiweb.jst.go.jp/nikkaji_web/pages/top_e.jsp?CONTENT=syosai&SN=J3.033.505H

> <PUBCHEM_CID_ASSOCIATIONS>
25151504  1

$$$$
274603776
  -OEChem-04041605452D

 25 24  0     1  0  0  0  0  0999 V2000
    0.0000    0.0000    0.0000 O   0  0  0  0  0  0  0  0  0  0  0  0
    0.0000    0.0000    0.0000 N   0  0  0  0  0  0  0  0  0  0  0  0
    0.0000    0.0000    0.0000 C   0  0  3  0  0  0  0  0  0  0  0  0
    0.0000    0.0000    0.0000 C   0  0  0  0  0  0  0  0  0  0  0  0
    0.0000    0.0000    0.0000 C   0  0  0  0  0  0  0  0  0  0  0  0
    0.0000    0.0000    0.0000 C   0  0  0  0  0  0  0  0  0  0  0  0
    0.0000    0.0000    0.0000 C   0  0  0  0  0  0  0  0  0  0  0  0
    0.0000    0.0000    0.0000 C   0  0  0  0  0  0  0  0  0  0  0  0
    0.0000    0.0000    0.0000 C   0  0  0  0  0  0  0  0  0  0  0  0
    0.0000    0.0000    0.0000 C   0  0  0  0  0  0  0  0  0  0  0  0
    0.0000    0.0000    0.0000 H   0  0  0  0  0  0  0  0  0  0  0  0
    0.0000    0.0000    0.0000 H   0  0  0  0  0  0  0  0  0  0  0  0
    0.0000    0.0000    0.0000 H   0  0  0  0  0  0  0  0  0  0  0  0
    0.0000    0.0000    0.0000 H   0  0  0  0  0  0  0  0  0  0  0  0
    0.0000    0.0000    0.0000 H   0  0  0  0  0  0  0  0  0  0  0  0
    0.0000    0.0000    0.0000 H   0  0  0  0  0  0  0  0  0  0  0  0
    0.0000    0.0000    0.0000 H   0  0  0  0  0  0  0  0  0  0  0  0
    0.0000    0.0000    0.0000 H   0  0  0  0  0  0  0  0  0  0  0  0
    0.0000    0.0000    0.0000 H   0  0  0  0  0  0  0  0  0  0  0  0
    0.0000    0.0000    0.0000 H   0  0  0  0  0  0  0  0  0  0  0  0
    0.0000    0.0000    0.0000 H   0  0  0  0  0  0  0  0  0  0  0  0
    0.0000    0.0000    0.0000 H   0  0  0  0  0  0  0  0  0  0  0  0
    0.0000    0.0000    0.0000 H   0  0  0  0  0  0  0  0  0  0  0  0
    0.0000    0.0000    0.0000 H   0  0  0  0  0  0  0  0  0  0  0  0
    0.0000    0.0000    0.0000 H   0  0  0  0  0  0  0  0  0  0  0  0
  1  8  1  0  0  0  0
  1 22  1  0  0  0  0
  2  8  2  3  0  0  0
  2 23  1  0  0  0  0
  3  4  1  0  0  0  0
  3  5  1  0  0  0  0
  3  8  1  0  0  0  0
  3 11  1  0  0  0  0
  4  6  1  0  0  0  0
  4  7  1  0  0  0  0
  4 12  1  0  0  0  0
  5  9  1  0  0  0  0
  5 13  1  0  0  0  0
  5 14  1  0  0  0  0
  6 15  1  0  0  0  0
  6 16  1  0  0  0  0
  6 17  1  0  0  0  0
  7 18  1  0  0  0  0
  7 19  1  0  0  0  0
  7 20  1  0  0  0  0
  9 10  2  0  0  0  0
  9 21  1  0  0  0  0
 10 24  1  0  0  0  0
 10 25  1  0  0  0  0
M  END
> <PUBCHEM_COMPOUND_ID_TYPE>
0

> <PUBCHEM_TOTAL_CHARGE>
0

> <PUBCHEM_SUBSTANCE_ID>
274603776

> <PUBCHEM_SUBSTANCE_VERSION>
1

> <PUBCHEM_EXT_DATASOURCE_NAME>
11834

> <PUBCHEM_EXT_DATASOURCE_REGID>
J227.647J

> <PUBCHEM_SUBSTANCE_SYNONYM>
299-78-5
Allylisopropylacetamide

> <PUBCHEM_GENERIC_REGISTRY_NAME>
299-78-5

> <PUBCHEM_XREF_EXT_ID>
J227.647J

> <PUBCHEM_EXT_DATASOURCE_URL>
http://doi.org/10.15079/NIKKAJI

> <PUBCHEM_EXT_SUBSTANCE_URL>
http://nikkajiweb.jst.go.jp/nikkaji_web/pages/top_e.jsp?CONTENT=syosai&SN=J227.647J

> <PUBCHEM_CID_ASSOCIATIONS>
9297  1

$$$$
275733901
  -OEChem-04041605452D

 56 59  0     1  0  0  0  0  0999 V2000
    0.0000    0.0000    0.0000 O   0  0  0  0  0  0  0  0  0  0  0  0
    0.0000    0.0000    0.0000 O   0  0  0  0  0  0  0  0  0  0  0  0
    0.0000    0.0000    0.0000 N   0  0  0  0  0  0  0  0  0  0  0  0
    0.0000    0.0000    0.0000 C   0  0  1  0  0  0  0  0  0  0  0  0
    0.0000    0.0000    0.0000 C   0  0  2  0  0  0  0  0  0  0  0  0
    0.0000    0.0000    0.0000 C   0  0  1  0  0  0  0  0  0  0  0  0
    0.0000    0.0000    0.0000 C   0  0  1  0  0  0  0  0  0  0  0  0
    0.0000    0.0000    0.0000 C   0  0  2  0  0  0  0  0  0  0  0  0
    0.0000    0.0000    0.0000 C   0  0  2  0  0  0  0  0  0  0  0  0
    0.0000    0.0000    0.0000 C   0  0  0  0  0  0  0  0  0  0  0  0
    0.0000    0.0000    0.0000 C   0  0  0  0  0  0  0  0  0  0  0  0
    0.0000    0.0000    0.0000 C   0  0  0  0  0  0  0  0  0  0  0  0
    0.0000    0.0000    0.0000 C   0  0  1  0  0  0  0  0  0  0  0  0
    0.0000    0.0000    0.0000 C   0  0  0  0  0  0  0  0  0  0  0  0
    0.0000    0.0000    0.0000 C   0  0  0  0  0  0  0  0  0  0  0  0
    0.0000    0.0000    0.0000 C   0  0  0  0  0  0  0  0  0  0  0  0
    0.0000    0.0000    0.0000 C   0  0  0  0  0  0  0  0  0  0  0  0
    0.0000    0.0000    0.0000 C   0  0  0  0  0  0  0  0  0  0  0  0
    0.0000    0.0000    0.0000 C   0  0  0  0  0  0  0  0  0  0  0  0
    0.0000    0.0000    0.0000 C   0  0  0  0  0  0  0  0  0  0  0  0
    0.0000    0.0000    0.0000 C   0  0  0  0  0  0  0  0  0  0  0  0
    0.0000    0.0000    0.0000 C   0  0  0  0  0  0  0  0  0  0  0  0
    0.0000    0.0000    0.0000 C   0  0  2  0  0  0  0  0  0  0  0  0
    0.0000    0.0000    0.0000 C   0  0  0  0  0  0  0  0  0  0  0  0
    0.0000    0.0000    0.0000 C   0  0  0  0  0  0  0  0  0  0  0  0
    0.0000    0.0000    0.0000 H   0  0  0  0  0  0  0  0  0  0  0  0
    0.0000    0.0000    0.0000 H   0  0  0  0  0  0  0  0  0  0  0  0
    0.0000    0.0000    0.0000 H   0  0  0  0  0  0  0  0  0  0  0  0
    0.0000    0.0000    0.0000 H   0  0  0  0  0  0  0  0  0  0  0  0
    0.0000    0.0000    0.0000 H   0  0  0  0  0  0  0  0  0  0  0  0
    0.0000    0.0000    0.0000 H   0  0  0  0  0  0  0  0  0  0  0  0
    0.0000    0.0000    0.0000 H   0  0  0  0  0  0  0  0  0  0  0  0
    0.0000    0.0000    0.0000 H   0  0  0  0  0  0  0  0  0  0  0  0
    0.0000    0.0000    0.0000 H   0  0  0  0  0  0  0  0  0  0  0  0
    0.0000    0.0000    0.0000 H   0  0  0  0  0  0  0  0  0  0  0  0
    0.0000    0.0000    0.0000 H   0  0  0  0  0  0  0  0  0  0  0  0
    0.0000    0.0000    0.0000 H   0  0  0  0  0  0  0  0  0  0  0  0
    0.0000    0.0000    0.0000 H   0  0  0  0  0  0  0  0  0  0  0  0
    0.0000    0.0000    0.0000 H   0  0  0  0  0  0  0  0  0  0  0  0
    0.0000    0.0000    0.0000 H   0  0  0  0  0  0  0  0  0  0  0  0
    0.0000    0.0000    0.0000 H   0  0  0  0  0  0  0  0  0  0  0  0
    0.0000    0.0000    0.0000 H   0  0  0  0  0  0  0  0  0  0  0  0
    0.0000    0.0000    0.0000 H   0  0  0  0  0  0  0  0  0  0  0  0
    0.0000    0.0000    0.0000 H   0  0  0  0  0  0  0  0  0  0  0  0
    0.0000    0.0000    0.0000 H   0  0  0  0  0  0  0  0  0  0  0  0
    0.0000    0.0000    0.0000 H   0  0  0  0  0  0  0  0  0  0  0  0
    0.0000    0.0000    0.0000 H   0  0  0  0  0  0  0  0  0  0  0  0
    0.0000    0.0000    0.0000 H   0  0  0  0  0  0  0  0  0  0  0  0
    0.0000    0.0000    0.0000 H   0  0  0  0  0  0  0  0  0  0  0  0
    0.0000    0.0000    0.0000 H   0  0  0  0  0  0  0  0  0  0  0  0
    0.0000    0.0000    0.0000 H   0  0  0  0  0  0  0  0  0  0  0  0
    0.0000    0.0000    0.0000 H   0  0  0  0  0  0  0  0  0  0  0  0
    0.0000    0.0000    0.0000 H   0  0  0  0  0  0  0  0  0  0  0  0
    0.0000    0.0000    0.0000 H   0  0  0  0  0  0  0  0  0  0  0  0
    0.0000    0.0000    0.0000 H   0  0  0  0  0  0  0  0  0  0  0  0
    0.0000    0.0000    0.0000 H   0  0  0  0  0  0  0  0  0  0  0  0
  1 21  2  0  0  0  0
  2 23  1  0  0  0  0
  2 56  1  0  0  0  0
  3 24  3  0  0  0  0
  4  5  1  0  0  0  0
  4  9  1  0  0  0  0
  4 10  1  0  0  0  0
  4 16  1  0  0  0  0
  5  6  1  0  0  0  0
  5 12  1  0  0  0  0
  5 26  1  0  0  0  0
  6  7  1  0  0  0  0
  6 14  1  0  0  0  0
  6 27  1  0  0  0  0
  7  8  1  0  0  0  0
  7 11  1  0  0  0  0
  7 28  1  0  0  0  0
  8 15  1  0  0  0  0
  8 17  1  0  0  0  0
  8 19  1  0  0  0  0
  9 13  1  0  0  0  0
  9 21  1  0  0  0  0
  9 29  1  0  0  0  0
 10 11  1  0  0  0  0
 10 30  1  0  0  0  0
 10 31  1  0  0  0  0
 11 32  1  0  0  0  0
 11 33  1  0  0  0  0
 12 13  1  0  0  0  0
 12 34  1  0  0  0  0
 12 35  1  0  0  0  0
 13 24  1  0  0  0  0
 13 36  1  0  0  0  0
 14 18  1  0  0  0  0
 14 37  1  0  0  0  0
 14 38  1  0  0  0  0
 15 18  2  0  0  0  0
 15 20  1  0  0  0  0
 16 39  1  0  0  0  0
 16 40  1  0  0  0  0
 16 41  1  0  0  0  0
 17 22  1  0  0  0  0
 17 42  1  0  0  0  0
 17 43  1  0  0  0  0
 18 44  1  0  0  0  0
 19 45  1  0  0  0  0
 19 46  1  0  0  0  0
 19 47  1  0  0  0  0
 20 23  1  0  0  0  0
 20 48  1  0  0  0  0
 20 49  1  0  0  0  0
 21 25  1  0  0  0  0
 22 23  1  0  0  0  0
 22 50  1  0  0  0  0
 22 51  1  0  0  0  0
 23 52  1  0  0  0  0
 25 53  1  0  0  0  0
 25 54  1  0  0  0  0
 25 55  1  0  0  0  0
M  END
> <PUBCHEM_COMPOUND_ID_TYPE>
0

> <PUBCHEM_TOTAL_CHARGE>
0

> <PUBCHEM_SUBSTANCE_ID>
275733901

> <PUBCHEM_SUBSTANCE_VERSION>
1

> <PUBCHEM_EXT_DATASOURCE_NAME>
11834

> <PUBCHEM_EXT_DATASOURCE_REGID>
J303.918H

> <PUBCHEM_SUBSTANCE_SYNONYM>
1434-54-4
Pregnenolone-16alpha-carbonitrile

> <PUBCHEM_GENERIC_REGISTRY_NAME>
1434-54-4

> <PUBCHEM_XREF_EXT_ID>
J303.918H

> <PUBCHEM_EXT_DATASOURCE_URL>
http://doi.org/10.15079/NIKKAJI

> <PUBCHEM_EXT_SUBSTANCE_URL>
http://nikkajiweb.jst.go.jp/nikkaji_web/pages/top_e.jsp?CONTENT=syosai&SN=J303.918H

> <PUBCHEM_CID_ASSOCIATIONS>
15032  1

$$$$
310264999
  -OEChem-04041605452D

 54 58  0     1  0  0  0  0  0999 V2000
    4.9873   -6.6298    0.0000 S   0  0  0  0  0  0  0  0  0  0  0  0
   17.8987   -5.2272    0.0000 S   0  0  0  0  0  0  0  0  0  0  0  0
    7.8749   -4.2785    0.0000 O   0  0  0  0  0  0  0  0  0  0  0  0
   10.0199   -6.3410    0.0000 O   0  0  0  0  0  0  0  0  0  0  0  0
   15.7124   -5.4748    0.0000 O   0  0  0  0  0  0  0  0  0  0  0  0
    8.5449   -1.4099    0.0000 O   0  0  0  0  0  0  0  0  0  0  0  0
   14.9699   -4.2785    0.0000 O   0  0  0  0  0  0  0  0  0  0  0  0
    7.1736   -5.5160    0.0000 N   0  0  0  0  0  0  0  0  0  0  0  0
    4.9461   -5.3098    0.0000 N   0  0  0  0  0  0  0  0  0  0  0  0
    8.5761   -5.5160    0.0000 N   0  0  0  0  0  0  0  0  0  0  0  0
   10.7211   -5.1035    0.0000 N   0  0  0  0  0  0  0  0  0  0  0  0
    8.5555   -3.0541    0.0000 N   0  0  0  0  0  0  0  0  0  0  0  0
   14.2687   -5.4748    0.0000 N   0  0  0  0  0  0  0  0  0  0  0  0
   17.8987   -6.5473    0.0000 N   0  0  0  0  0  0  0  0  0  0  0  0
    5.7298   -5.5160    0.0000 C   0  0  0  0  0  0  0  0  0  0  0  0
    9.2774   -5.1035    0.0000 C   0  0  3  0  0  0  0  0  0  0  0  0
    4.4923   -6.0110    0.0000 C   0  0  0  0  0  0  0  0  0  0  0  0
    7.8749   -5.1035    0.0000 C   0  0  0  0  0  0  0  0  0  0  0  0
   10.0199   -5.5160    0.0000 C   0  0  0  0  0  0  0  0  0  0  0  0
    6.4311   -5.1035    0.0000 C   0  0  0  0  0  0  0  0  0  0  0  0
    5.7298   -6.3410    0.0000 C   0  0  0  0  0  0  0  0  0  0  0  0
   11.4224   -5.5160    0.0000 C   0  0  3  0  0  0  0  0  0  0  0  0
    3.6673   -6.0110    0.0000 C   0  0  0  0  0  0  0  0  0  0  0  0
    9.2673   -4.2786    0.0000 C   0  0  0  0  0  0  0  0  0  0  0  0
   11.4224   -6.3410    0.0000 C   0  0  0  0  0  0  0  0  0  0  0  0
   12.1236   -5.1035    0.0000 C   0  0  0  0  0  0  0  0  0  0  0  0
   13.5674   -5.1035    0.0000 C   0  0  3  0  0  0  0  0  0  0  0  0
   12.1369   -6.7535    0.0000 C   0  0  0  0  0  0  0  0  0  0  0  0
    8.5555   -3.8792    0.0000 C   0  0  0  0  0  0  0  0  0  0  0  0
   12.8661   -5.5160    0.0000 C   0  0  0  0  0  0  0  0  0  0  0  0
    7.1736   -6.3410    0.0000 C   0  0  0  0  0  0  0  0  0  0  0  0
   13.5674   -4.2785    0.0000 C   0  0  0  0  0  0  0  0  0  0  0  0
   12.8248   -3.8660    0.0000 C   0  0  0  0  0  0  0  0  0  0  0  0
   14.9699   -5.1035    0.0000 C   0  0  0  0  0  0  0  0  0  0  0  0
   12.1369   -7.5784    0.0000 C   0  0  0  0  0  0  0  0  0  0  0  0
   12.8514   -6.3410    0.0000 C   0  0  0  0  0  0  0  0  0  0  0  0
    3.2136   -5.3098    0.0000 C   0  0  0  0  0  0  0  0  0  0  0  0
    3.2961   -6.7123    0.0000 C   0  0  0  0  0  0  0  0  0  0  0  0
    9.2598   -2.6472    0.0000 C   0  0  0  0  0  0  0  0  0  0  0  0
    7.8408   -2.6419    0.0000 C   0  0  0  0  0  0  0  0  0  0  0  0
   12.8248   -3.0410    0.0000 C   0  0  0  0  0  0  0  0  0  0  0  0
   12.1236   -4.2785    0.0000 C   0  0  0  0  0  0  0  0  0  0  0  0
   17.1149   -5.4748    0.0000 C   0  0  0  0  0  0  0  0  0  0  0  0
   12.8514   -7.9909    0.0000 C   0  0  0  0  0  0  0  0  0  0  0  0
   13.5659   -6.7535    0.0000 C   0  0  0  0  0  0  0  0  0  0  0  0
   16.4137   -5.0622    0.0000 C   0  0  0  0  0  0  0  0  0  0  0  0
    9.2594   -1.8221    0.0000 C   0  0  0  0  0  0  0  0  0  0  0  0
    7.8405   -1.8168    0.0000 C   0  0  0  0  0  0  0  0  0  0  0  0
   13.5659   -7.5784    0.0000 C   0  0  0  0  0  0  0  0  0  0  0  0
   12.1236   -2.6285    0.0000 C   0  0  0  0  0  0  0  0  0  0  0  0
   11.4224   -3.8660    0.0000 C   0  0  0  0  0  0  0  0  0  0  0  0
   17.1149   -6.2997    0.0000 C   0  0  0  0  0  0  0  0  0  0  0  0
   11.4224   -3.0410    0.0000 C   0  0  0  0  0  0  0  0  0  0  0  0
   18.3937   -5.8873    0.0000 C   0  0  0  0  0  0  0  0  0  0  0  0
  1 17  1  0  0  0  0
  1 21  1  0  0  0  0
  2 43  1  0  0  0  0
  2 54  1  0  0  0  0
  3 18  2  0  0  0  0
  4 19  2  0  0  0  0
  5 34  1  0  0  0  0
  5 46  1  0  0  0  0
  6 47  1  0  0  0  0
  6 48  1  0  0  0  0
  7 34  2  0  0  0  0
  8 18  1  0  0  0  0
  8 20  1  0  0  0  0
  8 31  1  0  0  0  0
  9 15  1  0  0  0  0
  9 17  2  0  0  0  0
 16 10  1  1  0  0  0
 10 18  1  0  0  0  0
 11 19  1  0  0  0  0
 11 22  1  0  0  0  0
 12 29  1  0  0  0  0
 12 39  1  0  0  0  0
 12 40  1  0  0  0  0
 13 27  1  0  0  0  0
 13 34  1  0  0  0  0
 14 52  1  0  0  0  0
 14 54  2  0  0  0  0
 15 20  1  0  0  0  0
 15 21  2  0  0  0  0
 16 19  1  0  0  0  0
 16 24  1  0  0  0  0
 17 23  1  0  0  0  0
 22 25  1  6  0  0  0
 22 26  1  0  0  0  0
 23 37  1  0  0  0  0
 23 38  1  0  0  0  0
 24 29  1  0  0  0  0
 25 28  1  0  0  0  0
 26 30  1  0  0  0  0
 27 30  1  0  0  0  0
 27 32  1  6  0  0  0
 28 35  2  0  0  0  0
 28 36  1  0  0  0  0
 32 33  1  0  0  0  0
 33 41  2  0  0  0  0
 33 42  1  0  0  0  0
 35 44  1  0  0  0  0
 36 45  2  0  0  0  0
 39 47  1  0  0  0  0
 40 48  1  0  0  0  0
 41 50  1  0  0  0  0
 42 51  2  0  0  0  0
 43 46  1  0  0  0  0
 43 52  2  0  0  0  0
 44 49  2  0  0  0  0
 45 49  1  0  0  0  0
 50 53  2  0  0  0  0
 51 53  1  0  0  0  0
M  END
> <PUBCHEM_COMPOUND_ID_TYPE>
0

> <PUBCHEM_TOTAL_CHARGE>
0

> <PUBCHEM_SUBSTANCE_ID>
310264999

> <PUBCHEM_SUBSTANCE_VERSION>
1

> <PUBCHEM_EXT_DATASOURCE_NAME>
DrugBank

> <PUBCHEM_EXT_DATASOURCE_REGID>
DB09065

> <PUBCHEM_SUBSTANCE_COMMENT>
Groups: approved
Indication: Cobicistat is a CYP3A inhibitor indicated to increase systemic exposure of atazanavir or darunavir (once daily dosing regimen) in combination with other antiretroviral agents in the treatment of HIV-1 infection. It is not interchangeable with ritonavir to increase systemic exposure of darunavir 600 mg twice daily, fosamprenavir, saquinavir, or tipranavir due to lack of exposure data. The use of cobicistat is not recommended with darunavir 600 mg twice daily, fosamprenavir, saquinavir or tipranavir. Complex or unknown mechanisms of drug interactions preclude extrapolation of ritonavir drug interactions to certain cobicistat interactions. Cobicistat and ritonavir when administered with either atazanavir or darunavir may result in different drug interactions when used with concomitant medications.
Mechanism of action: Cobicistat is a mechanism-based inhibitor of cytochrome P450 3A (CYP3A) isoforms. Inhibition of CYP3A-mediated metabolism by cobicistat increases the systemic exposure of CYP3A substrates atazanavir and darunavir and therefore enables increased anti-viral activity at a lower dosage. Cobicistat does not have any anti-HIV activity on its own.

> <PUBCHEM_SUBSTANCE_SYNONYM>
1,3-thiazol-5-ylmethyl [(2R,5R)-5-{[(2S)-2-({[(2-isopropyl-1,3-thiazol-4-yl)methyl](methyl)carbamoyl}amino)-4-(morpholin-4-yl)butanoyl]amino}-1,6-diphenylhexan-2-yl]carbamate
Cobicistat
DB09065
Tybost

> <PUBCHEM_XREF_EXT_ID>
DB09065

> <PUBCHEM_PUBMED_ID>
20043009
20683270
22850510
25164142

> <PUBCHEM_EXT_DATASOURCE_URL>
http://www.drugbank.ca

> <PUBCHEM_EXT_SUBSTANCE_URL>
http://www.drugbank.ca/drugs/DB09065

> <PUBCHEM_CID_ASSOCIATIONS>
25151504  1

> <PUBCHEM_COORDINATE_TYPE>
1
3

> <PUBCHEM_BONDANNOTATIONS>
16  10  5
22  25  6
27  32  6

$$$$
310279217
  -OEChem-04041605452D

 28 31  0     1  0  0  0  0  0999 V2000
    1.1411    2.0766    0.0000 O   0  0  0  0  0  0  0  0  0  0  0  0
   -3.5892   -2.0766    0.0000 O   0  0  0  0  0  0  0  0  0  0  0  0
    3.5892    0.0043    0.0000 N   0  0  0  0  0  0  0  0  0  0  0  0
   -0.0218   -0.8263    0.0000 C   0  0  3  0  0  0  0  0  0  0  0  0
    0.6863   -0.4095    0.0000 C   0  0  3  0  0  0  0  0  0  0  0  0
   -0.7417   -0.4095    0.0000 C   0  0  3  0  0  0  0  0  0  0  0  0
    0.6776    0.4211    0.0000 C   0  0  3  0  0  0  0  0  0  0  0  0
   -1.4529   -0.8263    0.0000 C   0  0  3  0  0  0  0  0  0  0  0  0
    1.4587    0.6805    0.0000 C   0  0  3  0  0  0  0  0  0  0  0  0
    1.4704   -0.6660    0.0000 C   0  0  0  0  0  0  0  0  0  0  0  0
   -0.7417    0.4211    0.0000 C   0  0  0  0  0  0  0  0  0  0  0  0
   -0.0335    0.8378    0.0000 C   0  0  0  0  0  0  0  0  0  0  0  0
   -0.0218   -1.6598    0.0000 C   0  0  0  0  0  0  0  0  0  0  0  0
    1.9513    0.0043    0.0000 C   0  0  3  0  0  0  0  0  0  0  0  0
   -1.4412   -1.6598    0.0000 C   0  0  0  0  0  0  0  0  0  0  0  0
   -0.7300   -2.0766    0.0000 C   0  0  0  0  0  0  0  0  0  0  0  0
   -2.1640   -0.4095    0.0000 C   0  0  0  0  0  0  0  0  0  0  0  0
    0.6368    1.2926    0.0000 C   0  0  0  0  0  0  0  0  0  0  0  0
    1.6948    1.4761    0.0000 C   0  0  0  0  0  0  0  0  0  0  0  0
   -1.4762    0.0306    0.0000 C   0  0  0  0  0  0  0  0  0  0  0  0
   -2.1523   -2.0766    0.0000 C   0  0  0  0  0  0  0  0  0  0  0  0
    2.7702    0.0043    0.0000 C   0  0  0  0  0  0  0  0  0  0  0  0
   -2.8897   -0.8263    0.0000 C   0  0  0  0  0  0  0  0  0  0  0  0
   -2.8752   -1.6598    0.0000 C   0  0  3  0  0  0  0  0  0  0  0  0
    2.6508    1.4878    0.0000 C   0  0  0  0  0  0  0  0  0  0  0  0
    0.0131   -0.0539    0.0000 H   0  0  0  0  0  0  0  0  0  0  0  0
    0.7388   -1.2460    0.0000 H   0  0  0  0  0  0  0  0  0  0  0  0
   -0.7184   -1.1790    0.0000 H   0  0  0  0  0  0  0  0  0  0  0  0
  1 19  2  0  0  0  0
 24  2  1  1  0  0  0
  3 22  3  0  0  0  0
  4  5  1  0  0  0  0
  4  6  1  0  0  0  0
  4 13  1  0  0  0  0
  4 26  1  1  0  0  0
  5  7  1  0  0  0  0
  5 10  1  0  0  0  0
  5 27  1  6  0  0  0
  6  8  1  0  0  0  0
  6 11  1  0  0  0  0
  6 28  1  6  0  0  0
  7  9  1  0  0  0  0
  7 12  1  0  0  0  0
  7 18  1  1  0  0  0
  8 15  1  0  0  0  0
  8 17  1  0  0  0  0
  8 20  1  1  0  0  0
  9 14  1  0  0  0  0
  9 19  1  1  0  0  0
 10 14  1  0  0  0  0
 11 12  1  0  0  0  0
 13 16  1  0  0  0  0
 14 22  1  6  0  0  0
 15 16  2  0  0  0  0
 15 21  1  0  0  0  0
 17 23  1  0  0  0  0
 19 25  1  0  0  0  0
 21 24  1  0  0  0  0
 23 24  1  0  0  0  0
M  END
> <PUBCHEM_COMPOUND_ID_TYPE>
0

> <PUBCHEM_TOTAL_CHARGE>
0

> <PUBCHEM_SUBSTANCE_ID>
310279217

> <PUBCHEM_SUBSTANCE_VERSION>
2

> <PUBCHEM_EXT_DATASOURCE_NAME>
11995

> <PUBCHEM_EXT_DATASOURCE_REGID>
GK4863

> <PUBCHEM_SUBSTANCE_SYNONYM>
1434-54-4
5-Pregnen-3beta-ol-20-one-16alpha-carbonitrile
MFCD00079212
Pregnenolone-16alpha-carbonitrile

> <PUBCHEM_GENERIC_REGISTRY_NAME>
1434-54-4

> <PUBCHEM_XREF_EXT_ID>
GK4863

> <PUBCHEM_EXT_DATASOURCE_URL>
http://www.glentham.com

> <PUBCHEM_EXT_SUBSTANCE_URL>
http://www.glentham.com/products/product/GK4863/

> <PUBCHEM_CID_ASSOCIATIONS>
15032  1

> <PUBCHEM_COORDINATE_TYPE>
1
3

> <PUBCHEM_BONDANNOTATIONS>
14  22  6
24  2  5
4  26  5
5  27  6
6  28  6
7  18  5
8  20  5
9  19  5

$$$$
312238321
  -OEChem-04041605452D

 28 31  0     1  0  0  0  0  0999 V2000
    1.9164    2.4776    0.0000 O   0  0  0  0  0  0  0  0  0  0  0  0
   -2.8579   -1.6500    0.0000 O   0  0  0  0  0  0  0  0  0  0  0  0
    4.3484    0.4125    0.0000 N   0  0  0  0  0  0  0  0  0  0  0  0
    0.7144   -0.4125    0.0000 C   0  0  3  0  0  0  0  0  0  0  0  0
    1.4289    0.0000    0.0000 C   0  0  3  0  0  0  0  0  0  0  0  0
    0.0000    0.0000    0.0000 C   0  0  3  0  0  0  0  0  0  0  0  0
    1.4289    0.8250    0.0000 C   0  0  3  0  0  0  0  0  0  0  0  0
   -0.7145   -0.4125    0.0000 C   0  0  3  0  0  0  0  0  0  0  0  0
    2.2135    1.0799    0.0000 C   0  0  3  0  0  0  0  0  0  0  0  0
    2.2135   -0.2550    0.0000 C   0  0  0  0  0  0  0  0  0  0  0  0
    0.0000    0.8250    0.0000 C   0  0  0  0  0  0  0  0  0  0  0  0
    0.7144    1.2375    0.0000 C   0  0  0  0  0  0  0  0  0  0  0  0
    0.7144   -1.2375    0.0000 C   0  0  0  0  0  0  0  0  0  0  0  0
    2.6984    0.4125    0.0000 C   0  0  3  0  0  0  0  0  0  0  0  0
   -0.7145   -1.2375    0.0000 C   0  0  0  0  0  0  0  0  0  0  0  0
    0.0000   -1.6500    0.0000 C   0  0  0  0  0  0  0  0  0  0  0  0
   -1.4290    0.0000    0.0000 C   0  0  0  0  0  0  0  0  0  0  0  0
    1.4289    1.6500    0.0000 C   0  0  0  0  0  0  0  0  0  0  0  0
    2.4685    1.8645    0.0000 C   0  0  0  0  0  0  0  0  0  0  0  0
   -0.7145    0.4125    0.0000 C   0  0  0  0  0  0  0  0  0  0  0  0
   -1.4290   -1.6500    0.0000 C   0  0  0  0  0  0  0  0  0  0  0  0
    3.5234    0.4125    0.0000 C   0  0  0  0  0  0  0  0  0  0  0  0
   -2.1435   -0.4125    0.0000 C   0  0  0  0  0  0  0  0  0  0  0  0
   -2.1435   -1.2375    0.0000 C   0  0  3  0  0  0  0  0  0  0  0  0
    3.2754    2.0361    0.0000 C   0  0  0  0  0  0  0  0  0  0  0  0
    0.7144    0.4125    0.0000 H   0  0  0  0  0  0  0  0  0  0  0  0
    1.4289   -0.8250    0.0000 H   0  0  0  0  0  0  0  0  0  0  0  0
    0.0000   -0.8250    0.0000 H   0  0  0  0  0  0  0  0  0  0  0  0
  1 19  2  0  0  0  0
 24  2  1  1  0  0  0
  3 22  3  0  0  0  0
  4  5  1  0  0  0  0
  4  6  1  0  0  0  0
  4 13  1  0  0  0  0
  4 26  1  1  0  0  0
  5  7  1  0  0  0  0
  5 10  1  0  0  0  0
  5 27  1  6  0  0  0
  6  8  1  0  0  0  0
  6 11  1  0  0  0  0
  6 28  1  6  0  0  0
  7  9  1  0  0  0  0
  7 12  1  0  0  0  0
  7 18  1  1  0  0  0
  8 15  1  0  0  0  0
  8 17  1  0  0  0  0
  8 20  1  1  0  0  0
  9 14  1  0  0  0  0
  9 19  1  1  0  0  0
 10 14  1  0  0  0  0
 11 12  1  0  0  0  0
 13 16  1  0  0  0  0
 14 22  1  6  0  0  0
 15 16  2  0  0  0  0
 15 21  1  0  0  0  0
 17 23  1  0  0  0  0
 19 25  1  0  0  0  0
 21 24  1  0  0  0  0
 23 24  1  0  0  0  0
M  END
> <PUBCHEM_COMPOUND_ID_TYPE>
0

> <PUBCHEM_TOTAL_CHARGE>
0

> <PUBCHEM_SUBSTANCE_ID>
312238321

> <PUBCHEM_SUBSTANCE_VERSION>
1

> <PUBCHEM_EXT_DATASOURCE_NAME>
12016

> <PUBCHEM_EXT_DATASOURCE_REGID>
55149

> <PUBCHEM_SUBSTANCE_SYNONYM>
3beta-hydroxy-20-oxo-5-pregnene-16alpha-carbonitrile
3beta-hydroxy-20-oxopregn-5-ene-16alpha-carbonitrile
PCN
pregnenolone 16alpha-carbonitrile
pregnenolone carbonitrile

> <PUBCHEM_XREF_EXT_ID>
55149

> <PUBCHEM_EXT_DATASOURCE_URL>
http://www.metabolomicsworkbench.org

> <PUBCHEM_EXT_SUBSTANCE_URL>
http://www.metabolomicsworkbench.org/data/StructureData.php?RegNo=55149

> <PUBCHEM_CID_ASSOCIATIONS>
15032  1

> <PUBCHEM_COORDINATE_TYPE>
1
3

> <PUBCHEM_BONDANNOTATIONS>
14  22  6
24  2  5
4  26  5
5  27  6
6  28  6
7  18  5
8  20  5
9  19  5

$$$$
312245190
  -OEChem-04041605452D

 54 58  0     1  0  0  0  0  0999 V2000
    4.9873   -6.6298    0.0000 S   0  0  0  0  0  0  0  0  0  0  0  0
   17.8987   -5.2273    0.0000 S   0  0  0  0  0  0  0  0  0  0  0  0
    7.8749   -4.2785    0.0000 O   0  0  0  0  0  0  0  0  0  0  0  0
   10.0199   -6.3410    0.0000 O   0  0  0  0  0  0  0  0  0  0  0  0
   15.7124   -5.4748    0.0000 O   0  0  0  0  0  0  0  0  0  0  0  0
    8.5449   -1.4100    0.0000 O   0  0  0  0  0  0  0  0  0  0  0  0
   14.9699   -4.2785    0.0000 O   0  0  0  0  0  0  0  0  0  0  0  0
    7.1736   -5.5160    0.0000 N   0  0  0  0  0  0  0  0  0  0  0  0
    4.9461   -5.3098    0.0000 N   0  0  0  0  0  0  0  0  0  0  0  0
    8.5761   -5.5160    0.0000 N   0  0  0  0  0  0  0  0  0  0  0  0
   10.7211   -5.1035    0.0000 N   0  0  0  0  0  0  0  0  0  0  0  0
    8.5555   -3.0542    0.0000 N   0  0  0  0  0  0  0  0  0  0  0  0
   14.2687   -5.4748    0.0000 N   0  0  0  0  0  0  0  0  0  0  0  0
   17.8987   -6.5473    0.0000 N   0  0  0  0  0  0  0  0  0  0  0  0
    5.7298   -5.5160    0.0000 C   0  0  0  0  0  0  0  0  0  0  0  0
    9.2774   -5.1035    0.0000 C   0  0  3  0  0  0  0  0  0  0  0  0
    4.4923   -6.0110    0.0000 C   0  0  0  0  0  0  0  0  0  0  0  0
    7.8749   -5.1035    0.0000 C   0  0  0  0  0  0  0  0  0  0  0  0
   10.0199   -5.5160    0.0000 C   0  0  0  0  0  0  0  0  0  0  0  0
    6.4311   -5.1035    0.0000 C   0  0  0  0  0  0  0  0  0  0  0  0
    5.7298   -6.3410    0.0000 C   0  0  0  0  0  0  0  0  0  0  0  0
   11.4224   -5.5160    0.0000 C   0  0  3  0  0  0  0  0  0  0  0  0
    3.6673   -6.0110    0.0000 C   0  0  0  0  0  0  0  0  0  0  0  0
    9.2673   -4.2786    0.0000 C   0  0  0  0  0  0  0  0  0  0  0  0
   11.4224   -6.3410    0.0000 C   0  0  0  0  0  0  0  0  0  0  0  0
   12.1236   -5.1035    0.0000 C   0  0  0  0  0  0  0  0  0  0  0  0
   13.5674   -5.1035    0.0000 C   0  0  3  0  0  0  0  0  0  0  0  0
   12.1369   -6.7535    0.0000 C   0  0  0  0  0  0  0  0  0  0  0  0
    8.5555   -3.8792    0.0000 C   0  0  0  0  0  0  0  0  0  0  0  0
   12.8661   -5.5160    0.0000 C   0  0  0  0  0  0  0  0  0  0  0  0
    7.1736   -6.3410    0.0000 C   0  0  0  0  0  0  0  0  0  0  0  0
   13.5674   -4.2785    0.0000 C   0  0  0  0  0  0  0  0  0  0  0  0
   12.8249   -3.8660    0.0000 C   0  0  0  0  0  0  0  0  0  0  0  0
   14.9699   -5.1035    0.0000 C   0  0  0  0  0  0  0  0  0  0  0  0
   12.1369   -7.5784    0.0000 C   0  0  0  0  0  0  0  0  0  0  0  0
   12.8514   -6.3410    0.0000 C   0  0  0  0  0  0  0  0  0  0  0  0
    3.2136   -5.3098    0.0000 C   0  0  0  0  0  0  0  0  0  0  0  0
    3.2961   -6.7123    0.0000 C   0  0  0  0  0  0  0  0  0  0  0  0
    9.2598   -2.6472    0.0000 C   0  0  0  0  0  0  0  0  0  0  0  0
    7.8408   -2.6419    0.0000 C   0  0  0  0  0  0  0  0  0  0  0  0
   12.8249   -3.0410    0.0000 C   0  0  0  0  0  0  0  0  0  0  0  0
   12.1236   -4.2785    0.0000 C   0  0  0  0  0  0  0  0  0  0  0  0
   17.1149   -5.4748    0.0000 C   0  0  0  0  0  0  0  0  0  0  0  0
   12.8514   -7.9909    0.0000 C   0  0  0  0  0  0  0  0  0  0  0  0
   13.5659   -6.7535    0.0000 C   0  0  0  0  0  0  0  0  0  0  0  0
   16.4137   -5.0623    0.0000 C   0  0  0  0  0  0  0  0  0  0  0  0
    9.2595   -1.8221    0.0000 C   0  0  0  0  0  0  0  0  0  0  0  0
    7.8405   -1.8169    0.0000 C   0  0  0  0  0  0  0  0  0  0  0  0
   13.5659   -7.5784    0.0000 C   0  0  0  0  0  0  0  0  0  0  0  0
   12.1236   -2.6285    0.0000 C   0  0  0  0  0  0  0  0  0  0  0  0
   11.4224   -3.8660    0.0000 C   0  0  0  0  0  0  0  0  0  0  0  0
   17.1149   -6.2998    0.0000 C   0  0  0  0  0  0  0  0  0  0  0  0
   11.4224   -3.0410    0.0000 C   0  0  0  0  0  0  0  0  0  0  0  0
   18.3937   -5.8873    0.0000 C   0  0  0  0  0  0  0  0  0  0  0  0
  1 17  1  0  0  0  0
  1 21  1  0  0  0  0
  2 43  1  0  0  0  0
  2 54  1  0  0  0  0
  3 18  2  0  0  0  0
  4 19  2  0  0  0  0
  5 34  1  0  0  0  0
  5 46  1  0  0  0  0
  6 47  1  0  0  0  0
  6 48  1  0  0  0  0
  7 34  2  0  0  0  0
  8 18  1  0  0  0  0
  8 20  1  0  0  0  0
  8 31  1  0  0  0  0
  9 15  1  0  0  0  0
  9 17  2  0  0  0  0
 16 10  1  1  0  0  0
 10 18  1  0  0  0  0
 11 19  1  0  0  0  0
 11 22  1  0  0  0  0
 12 29  1  0  0  0  0
 12 39  1  0  0  0  0
 12 40  1  0  0  0  0
 13 27  1  0  0  0  0
 13 34  1  0  0  0  0
 14 52  1  0  0  0  0
 14 54  2  0  0  0  0
 15 20  1  0  0  0  0
 15 21  2  0  0  0  0
 16 19  1  0  0  0  0
 16 24  1  0  0  0  0
 17 23  1  0  0  0  0
 22 25  1  6  0  0  0
 22 26  1  0  0  0  0
 23 37  1  0  0  0  0
 23 38  1  0  0  0  0
 24 29  1  0  0  0  0
 25 28  1  0  0  0  0
 26 30  1  0  0  0  0
 27 30  1  0  0  0  0
 27 32  1  6  0  0  0
 28 35  2  0  0  0  0
 28 36  1  0  0  0  0
 32 33  1  0  0  0  0
 33 41  2  0  0  0  0
 33 42  1  0  0  0  0
 35 44  1  0  0  0  0
 36 45  2  0  0  0  0
 39 47  1  0  0  0  0
 40 48  1  0  0  0  0
 41 50  1  0  0  0  0
 42 51  2  0  0  0  0
 43 46  1  0  0  0  0
 43 52  2  0  0  0  0
 44 49  2  0  0  0  0
 45 49  1  0  0  0  0
 50 53  2  0  0  0  0
 51 53  1  0  0  0  0
M  END
> <PUBCHEM_COMPOUND_ID_TYPE>
0

> <PUBCHEM_TOTAL_CHARGE>
0

> <PUBCHEM_SUBSTANCE_ID>
312245190

> <PUBCHEM_SUBSTANCE_VERSION>
1

> <PUBCHEM_EXT_DATASOURCE_NAME>
12016

> <PUBCHEM_EXT_DATASOURCE_REGID>
65914

> <PUBCHEM_SUBSTANCE_SYNONYM>
1,3-thiazol-5-ylmethyl [(2R,5R)-5-{[(2S)-2-({[(2-isopropyl-1,3-thiazol-4-yl)methyl](methyl)carbamoyl}amino)-4-(morpholin-4-yl)butanoyl]amino}-1,6-diphenylhexan-2-yl]carbamate
GS 9350
GS-9350
cobicistat

> <PUBCHEM_XREF_EXT_ID>
65914

> <PUBCHEM_EXT_DATASOURCE_URL>
http://www.metabolomicsworkbench.org

> <PUBCHEM_EXT_SUBSTANCE_URL>
http://www.metabolomicsworkbench.org/data/StructureData.php?RegNo=65914

> <PUBCHEM_CID_ASSOCIATIONS>
25151504  1

> <PUBCHEM_COORDINATE_TYPE>
1
3

> <PUBCHEM_BONDANNOTATIONS>
16  10  5
22  25  6
27  32  6

$$$$